
 + + + + + + + + + + + + + + + + + + + + + + + + + + + + + + + + + + + + + + + +
 + + + + + + + + + + + + + + + + + + + + + + + + + + + + + + + + + + + + + + + +
 + +                                                                         + +
 + +                      ASPEN PLUS CALCULATION HISTORY                     + +
 + +                                                                         + +
 + + + + + + + + + + + + + + + + + + + + + + + + + + + + + + + + + + + + + + + +
 + + + + + + + + + + + + + + + + + + + + + + + + + + + + + + + + + + + + + + + +

 ASPEN PLUS IS A TRADEMARK OF           HOTLINE:
 ASPEN TECHNOLOGY, INC.                 U.S.A. 888/996-7100
 781/221-6400                           EUROPE (44) 1189-226555

 PLATFORM: WIN-X64                                       NOVEMBER 15, 2024   
 VERSION: 40.0   Build 359                               FRIDAY      
 INSTALLATION:                                           7:26:39 A.M.        

      KODE = 5  NTRIAL =   4  T = 298.1500  P =  7924.05      V =  0.00000      Q =  0.00000    
      KODE = 5  NTRIAL =   4  T = 298.1500  P =  7924.05      V =  0.00000      Q =  0.00000    
      KODE = 5  NTRIAL =   4  T = 100.0000  P =  253765.      V =  0.00000      Q =  0.00000    
      KODE = 5  NTRIAL =   4  T = 100.0000  P =  253765.      V =  0.00000      Q =  0.00000    
      KODE = 2  NTRIAL =   3  T = 105.3556  P = 6.000000E+06  V =  0.00000      Q =  0.00000    
      ITER =    16  T =  584.5066  P =  6.000000E+06  PHASES = VAPOR
      KODE = 2  NTRIAL =   3  T = 105.3556  P = 6.000000E+06  V =  0.00000      Q =  0.00000    
      ITER =    16  T =  584.5066  P =  6.000000E+06  PHASES = VAPOR
      KODE = 2  NTRIAL =   3  T = 105.3556  P = 6.000000E+06  V =  0.00000      Q =  0.00000    
      ITER =    16  T =  584.5066  P =  6.000000E+06  PHASES = VAPOR
      KODE = 2  NTRIAL =   3  T = 105.3556  P = 6.000000E+06  V =  0.00000      Q =  0.00000    
      ITER =    16  T =  584.5066  P =  6.000000E+06  PHASES = VAPOR
      KODE = 2  NTRIAL =   3  T = 105.3556  P = 6.000000E+06  V =  0.00000      Q =  0.00000    
      ITER =    16  T =  584.5066  P =  6.000000E+06  PHASES = VAPOR
      KODE = 2  NTRIAL =   3  T = 105.3556  P = 6.000000E+06  V =  0.00000      Q =  0.00000    
      ITER =    16  T =  584.5066  P =  6.000000E+06  PHASES = VAPOR
      KODE = 2  NTRIAL =   3  T = 105.3556  P = 6.000000E+06  V =  0.00000      Q =  0.00000    
      ITER =    16  T =  584.5097  P =  6.000000E+06  PHASES = VAPOR
      KODE = 2  NTRIAL =   3  T = 105.3556  P = 6.000000E+06  V =  0.00000      Q =  0.00000    
      ITER =    16  T =  584.5097  P =  6.000000E+06  PHASES = VAPOR
      KODE = 2  NTRIAL =   3  T = 105.3556  P = 6.000000E+06  V =  0.00000      Q =  0.00000    
      ITER =    16  T =  584.5066  P =  6.000000E+06  PHASES = VAPOR
      KODE = 2  NTRIAL =   3  T = 105.3556  P = 6.000000E+06  V =  0.00000      Q =  0.00000    
      ITER =    16  T =  584.5066  P =  6.000000E+06  PHASES = VAPOR
      KODE = 2  NTRIAL =   3  T = 105.3556  P = 6.000000E+06  V =  0.00000      Q =  0.00000    
      ITER =    16  T =  584.5066  P =  6.000000E+06  PHASES = VAPOR
      KODE = 2  NTRIAL =   3  T = 105.3556  P = 6.000000E+06  V =  0.00000      Q =  0.00000    
      ITER =    16  T =  584.5066  P =  6.000000E+06  PHASES = VAPOR
      KODE = 2  NTRIAL =   3  T = 105.3556  P = 6.000000E+06  V =  0.00000      Q =  0.00000    
      ITER =    16  T =  584.5066  P =  6.000000E+06  PHASES = VAPOR
      KODE = 2  NTRIAL =   3  T = 105.3556  P = 6.000000E+06  V =  0.00000      Q =  0.00000    
      ITER =    16  T =  584.5066  P =  6.000000E+06  PHASES = VAPOR
      KODE = 2  NTRIAL =   3  T = 105.3556  P = 6.000000E+06  V =  0.00000      Q =  0.00000    
      ITER =    16  T =  584.5097  P =  6.000000E+06  PHASES = VAPOR
      KODE = 2  NTRIAL =   3  T = 105.3556  P = 6.000000E+06  V =  0.00000      Q =  0.00000    
      ITER =    16  T =  584.5097  P =  6.000000E+06  PHASES = VAPOR
      KODE = 2  NTRIAL =   3  T = 105.3556  P = 6.000000E+06  V =  0.00000      Q =  0.00000    
      ITER =    16  T =  584.5066  P =  6.000000E+06  PHASES = VAPOR
      KODE = 2  NTRIAL =   3  T = 105.3556  P = 6.000000E+06  V =  0.00000      Q =  0.00000    
      ITER =    16  T =  584.5066  P =  6.000000E+06  PHASES = VAPOR
      KODE = 5  NTRIAL =   4  T = 100.0000  P =  253765.      V =  0.00000      Q =  0.00000    
      KODE = 5  NTRIAL =   4  T = 298.1500  P =  7924.05      V =  0.00000      Q =  0.00000    
      KODE = 2  NTRIAL =   3  T = 105.3556  P = 6.000000E+06  V =  0.00000      Q =  0.00000    
      ITER =    16  T =  584.5066  P =  6.000000E+06  PHASES = VAPOR
      KODE = 2  NTRIAL =   3  T = 105.3556  P = 6.000000E+06  V =  0.00000      Q =  0.00000    
      ITER =    16  T =  584.5066  P =  6.000000E+06  PHASES = VAPOR
      KODE = 2  NTRIAL =   3  T = 105.3556  P = 6.000000E+06  V =  0.00000      Q =  0.00000    
      ITER =    16  T =  584.5066  P =  6.000000E+06  PHASES = VAPOR
      KODE = 2  NTRIAL =   3  T = 105.3556  P = 6.000000E+06  V =  0.00000      Q =  0.00000    
      ITER =    16  T =  584.5066  P =  6.000000E+06  PHASES = VAPOR
      KODE = 2  NTRIAL =   3  T = 105.3556  P = 6.000000E+06  V =  0.00000      Q =  0.00000    
      ITER =    16  T =  584.5066  P =  6.000000E+06  PHASES = VAPOR
      KODE = 2  NTRIAL =   3  T = 105.3556  P = 6.000000E+06  V =  0.00000      Q =  0.00000    
      ITER =    16  T =  584.5066  P =  6.000000E+06  PHASES = VAPOR
      KODE = 2  NTRIAL =   3  T = 105.3556  P = 6.000000E+06  V =  0.00000      Q =  0.00000    
      ITER =    16  T =  584.5066  P =  6.000000E+06  PHASES = VAPOR
      KODE = 2  NTRIAL =   3  T = 105.3556  P = 6.000000E+06  V =  0.00000      Q =  0.00000    
      ITER =    16  T =  584.5097  P =  6.000000E+06  PHASES = VAPOR
      KODE = 2  NTRIAL =   3  T = 105.3556  P = 6.000000E+06  V =  0.00000      Q =  0.00000    
      ITER =    16  T =  584.5066  P =  6.000000E+06  PHASES = VAPOR
      KODE = 2  NTRIAL =   3  T = 105.3556  P = 6.000000E+06  V =  0.00000      Q =  0.00000    
      ITER =    16  T =  584.5097  P =  6.000000E+06  PHASES = VAPOR
      KODE = 2  NTRIAL =   3  T = 105.3556  P = 6.000000E+06  V =  0.00000      Q =  0.00000    
      ITER =    16  T =  584.5097  P =  6.000000E+06  PHASES = VAPOR
      KODE = 2  NTRIAL =   3  T = 105.3556  P = 6.000000E+06  V =  0.00000      Q =  0.00000    
      ITER =    16  T =  584.5097  P =  6.000000E+06  PHASES = VAPOR
      KODE = 5  NTRIAL =   4  T = 298.1500  P =  7924.05      V =  0.00000      Q =  0.00000    
      KODE = 5  NTRIAL =   4  T = 298.1500  P =  7924.05      V =  0.00000      Q =  0.00000    
      KODE = 5  NTRIAL =   4  T = 100.0000  P =  253765.      V =  0.00000      Q =  0.00000    
      KODE = 5  NTRIAL =   4  T = 100.0000  P =  253765.      V =  0.00000      Q =  0.00000    
      KODE = 2  NTRIAL =   3  T = 105.3556  P = 6.000000E+06  V =  0.00000      Q =  0.00000    
      ITER =    16  T =  584.5066  P =  6.000000E+06  PHASES = VAPOR
      KODE = 2  NTRIAL =   3  T = 105.3556  P = 6.000000E+06  V =  0.00000      Q =  0.00000    
      ITER =    16  T =  584.5066  P =  6.000000E+06  PHASES = VAPOR
      KODE = 5  NTRIAL =   4  T = 100.0000  P =  253765.      V =  0.00000      Q =  0.00000    
      KODE = 5  NTRIAL =   4  T = 298.1500  P =  7924.05      V =  0.00000      Q =  0.00000    
      KODE = 2  NTRIAL =   3  T = 105.3556  P = 6.000000E+06  V =  0.00000      Q =  0.00000    
      ITER =    16  T =  584.5066  P =  6.000000E+06  PHASES = VAPOR
      KODE = 2  NTRIAL =   3  T = 105.3556  P = 6.000000E+06  V =  0.00000      Q =  0.00000    
      ITER =    16  T =  584.5066  P =  6.000000E+06  PHASES = VAPOR
      KODE = 2  NTRIAL =   3  T = 105.3556  P = 6.000000E+06  V =  0.00000      Q =  0.00000    
      ITER =    16  T =  584.5066  P =  6.000000E+06  PHASES = VAPOR
      KODE = 2  NTRIAL =   3  T = 105.3556  P = 6.000000E+06  V =  0.00000      Q =  0.00000    
      ITER =    16  T =  584.5066  P =  6.000000E+06  PHASES = VAPOR
      KODE = 2  NTRIAL =   3  T = 105.3556  P = 6.000000E+06  V =  0.00000      Q =  0.00000    
      ITER =    16  T =  584.5066  P =  6.000000E+06  PHASES = VAPOR
      KODE = 2  NTRIAL =   3  T = 105.3556  P = 6.000000E+06  V =  0.00000      Q =  0.00000    
      ITER =    16  T =  584.5066  P =  6.000000E+06  PHASES = VAPOR
      KODE = 2  NTRIAL =   3  T = 105.3556  P = 6.000000E+06  V =  0.00000      Q =  0.00000    
      ITER =    16  T =  584.5066  P =  6.000000E+06  PHASES = VAPOR
      KODE = 2  NTRIAL =   3  T = 105.3556  P = 6.000000E+06  V =  0.00000      Q =  0.00000    
      ITER =    16  T =  584.5097  P =  6.000000E+06  PHASES = VAPOR
      KODE = 2  NTRIAL =   3  T = 105.3556  P = 6.000000E+06  V =  0.00000      Q =  0.00000    
      ITER =    16  T =  584.5066  P =  6.000000E+06  PHASES = VAPOR
      KODE = 2  NTRIAL =   3  T = 105.3556  P = 6.000000E+06  V =  0.00000      Q =  0.00000    
      ITER =    16  T =  584.5097  P =  6.000000E+06  PHASES = VAPOR
      KODE = 2  NTRIAL =   3  T = 105.3556  P = 6.000000E+06  V =  0.00000      Q =  0.00000    
      ITER =    16  T =  584.5097  P =  6.000000E+06  PHASES = VAPOR
      KODE = 2  NTRIAL =   3  T = 105.3556  P = 6.000000E+06  V =  0.00000      Q =  0.00000    
      ITER =    16  T =  584.5097  P =  6.000000E+06  PHASES = VAPOR
      KODE = 5  NTRIAL =   4  T = 298.1500  P =  7924.05      V =  0.00000      Q =  0.00000    
      KODE = 5  NTRIAL =   4  T = 298.1500  P =  7924.05      V =  0.00000      Q =  0.00000    
      KODE = 5  NTRIAL =   4  T = 100.0000  P =  253765.      V =  0.00000      Q =  0.00000    
      KODE = 5  NTRIAL =   4  T = 100.0000  P =  253765.      V =  0.00000      Q =  0.00000    
      KODE = 2  NTRIAL =   3  T = 105.3556  P = 6.000000E+06  V =  0.00000      Q =  0.00000    
      ITER =    16  T =  584.5066  P =  6.000000E+06  PHASES = VAPOR
      KODE = 2  NTRIAL =   3  T = 105.3556  P = 6.000000E+06  V =  0.00000      Q =  0.00000    
      ITER =    16  T =  584.5066  P =  6.000000E+06  PHASES = VAPOR
      KODE = 5  NTRIAL =   4  T = 100.0000  P =  253765.      V =  0.00000      Q =  0.00000    
      KODE = 5  NTRIAL =   4  T = 298.1500  P =  7924.05      V =  0.00000      Q =  0.00000    
      KODE = 2  NTRIAL =   3  T = 105.3556  P = 6.000000E+06  V =  0.00000      Q =  0.00000    
      ITER =    16  T =  584.5066  P =  6.000000E+06  PHASES = VAPOR
      KODE = 2  NTRIAL =   3  T = 105.3556  P = 6.000000E+06  V =  0.00000      Q =  0.00000    
      ITER =    16  T =  584.5066  P =  6.000000E+06  PHASES = VAPOR
      KODE = 2  NTRIAL =   3  T = 105.3556  P = 6.000000E+06  V =  0.00000      Q =  0.00000    
      ITER =    16  T =  584.5066  P =  6.000000E+06  PHASES = VAPOR
      KODE = 2  NTRIAL =   3  T = 105.3556  P = 6.000000E+06  V =  0.00000      Q =  0.00000    
      ITER =    16  T =  584.5066  P =  6.000000E+06  PHASES = VAPOR
      KODE = 2  NTRIAL =   3  T = 105.3556  P = 6.000000E+06  V =  0.00000      Q =  0.00000    
      ITER =    16  T =  584.5066  P =  6.000000E+06  PHASES = VAPOR
      KODE = 2  NTRIAL =   3  T = 105.3556  P = 6.000000E+06  V =  0.00000      Q =  0.00000    
      ITER =    16  T =  584.5066  P =  6.000000E+06  PHASES = VAPOR
      KODE = 2  NTRIAL =   3  T = 105.3556  P = 6.000000E+06  V =  0.00000      Q =  0.00000    
      ITER =    16  T =  584.5066  P =  6.000000E+06  PHASES = VAPOR
      KODE = 2  NTRIAL =   3  T = 105.3556  P = 6.000000E+06  V =  0.00000      Q =  0.00000    
      ITER =    16  T =  584.5097  P =  6.000000E+06  PHASES = VAPOR
      KODE = 2  NTRIAL =   3  T = 105.3556  P = 6.000000E+06  V =  0.00000      Q =  0.00000    
      ITER =    16  T =  584.5066  P =  6.000000E+06  PHASES = VAPOR
      KODE = 2  NTRIAL =   3  T = 105.3556  P = 6.000000E+06  V =  0.00000      Q =  0.00000    
      ITER =    16  T =  584.5097  P =  6.000000E+06  PHASES = VAPOR
      KODE = 2  NTRIAL =   3  T = 105.3556  P = 6.000000E+06  V =  0.00000      Q =  0.00000    
      ITER =    16  T =  584.5097  P =  6.000000E+06  PHASES = VAPOR
      KODE = 2  NTRIAL =   3  T = 105.3556  P = 6.000000E+06  V =  0.00000      Q =  0.00000    
      ITER =    16  T =  584.5097  P =  6.000000E+06  PHASES = VAPOR
      KODE = 2  NTRIAL =   3  T = 105.3556  P = 6.000000E+06  V =  0.00000      Q =  0.00000    
      ITER =    16  T =  584.5066  P =  6.000000E+06  PHASES = VAPOR
      KODE = 2  NTRIAL =   3  T = 105.3556  P = 6.000000E+06  V =  0.00000      Q =  0.00000    
      ITER =    16  T =  584.5066  P =  6.000000E+06  PHASES = VAPOR
      KODE = 2  NTRIAL =   3  T = 105.3556  P = 6.000000E+06  V =  0.00000      Q =  0.00000    
      ITER =    16  T =  584.5066  P =  6.000000E+06  PHASES = VAPOR
      KODE = 2  NTRIAL =   3  T = 105.3556  P = 6.000000E+06  V =  0.00000      Q =  0.00000    
      ITER =    16  T =  584.5066  P =  6.000000E+06  PHASES = VAPOR
      KODE = 2  NTRIAL =   3  T = 105.3556  P = 6.000000E+06  V =  0.00000      Q =  0.00000    
      ITER =    16  T =  584.5066  P =  6.000000E+06  PHASES = VAPOR
      KODE = 2  NTRIAL =   3  T = 105.3556  P = 6.000000E+06  V =  0.00000      Q =  0.00000    
      ITER =    16  T =  584.5066  P =  6.000000E+06  PHASES = VAPOR
      KODE = 2  NTRIAL =   3  T = 105.3556  P = 6.000060E+06  V =  0.00000      Q =  0.00000    
      ITER =    16  T =  584.5066  P =  6.000000E+06  PHASES = VAPOR
      KODE = 2  NTRIAL =   3  T = 105.3556  P = 6.000060E+06  V =  0.00000      Q =  0.00000    
      ITER =    16  T =  584.5066  P =  6.000000E+06  PHASES = VAPOR
      KODE = 2  NTRIAL =   3  T = 105.3556  P = 6.000000E+06  V =  0.00000      Q =  0.00000    
      ITER =    16  T =  584.5097  P =  6.000000E+06  PHASES = VAPOR
      KODE = 2  NTRIAL =   3  T = 105.3556  P = 6.000000E+06  V =  0.00000      Q =  0.00000    
      ITER =    16  T =  584.5097  P =  6.000000E+06  PHASES = VAPOR
      KODE = 2  NTRIAL =   3  T = 105.3556  P = 6.000004E+06  V =  0.00000      Q =  0.00000    
      ITER =    16  T =  584.5066  P =  6.000000E+06  PHASES = VAPOR
      KODE = 2  NTRIAL =   3  T = 105.3556  P = 6.000004E+06  V =  0.00000      Q =  0.00000    
      ITER =    16  T =  584.5066  P =  6.000000E+06  PHASES = VAPOR
      KODE = 2  NTRIAL =   3  T = 105.3556  P = 6.000186E+06  V =  0.00000      Q =  0.00000    
      ITER =    16  T =  584.5066  P =  6.000000E+06  PHASES = VAPOR
      KODE = 2  NTRIAL =   3  T = 105.3556  P = 6.000186E+06  V =  0.00000      Q =  0.00000    
      ITER =    16  T =  584.5066  P =  6.000000E+06  PHASES = VAPOR
      KODE = 2  NTRIAL =   3  T = 105.3556  P = 6.000186E+06  V =  0.00000      Q =  0.00000    
      ITER =    16  T =  584.5066  P =  6.000000E+06  PHASES = VAPOR
      KODE = 2  NTRIAL =   3  T = 105.3556  P = 6.000186E+06  V =  0.00000      Q =  0.00000    
      ITER =    16  T =  584.5066  P =  6.000000E+06  PHASES = VAPOR
      KODE = 2  NTRIAL =   3  T = 105.3556  P = 6.000186E+06  V =  0.00000      Q =  0.00000    
      ITER =    16  T =  584.5066  P =  6.000000E+06  PHASES = VAPOR
      KODE = 2  NTRIAL =   3  T = 105.3556  P = 6.000186E+06  V =  0.00000      Q =  0.00000    
      ITER =    16  T =  584.5066  P =  6.000000E+06  PHASES = VAPOR
      KODE = 2  NTRIAL =   3  T = 105.3556  P = 6.000186E+06  V =  0.00000      Q =  0.00000    
      ITER =    16  T =  584.5066  P =  6.000000E+06  PHASES = VAPOR
      KODE = 2  NTRIAL =   3  T = 105.3556  P = 6.000186E+06  V =  0.00000      Q =  0.00000    
      ITER =    16  T =  584.5066  P =  6.000000E+06  PHASES = VAPOR
      KODE = 2  NTRIAL =   3  T = 105.3556  P = 6.000246E+06  V =  0.00000      Q =  0.00000    
      ITER =    16  T =  584.5066  P =  6.000000E+06  PHASES = VAPOR
      KODE = 2  NTRIAL =   3  T = 105.3556  P = 6.000246E+06  V =  0.00000      Q =  0.00000    
      ITER =    16  T =  584.5066  P =  6.000000E+06  PHASES = VAPOR
      KODE = 2  NTRIAL =   3  T = 105.3556  P = 6.000186E+06  V =  0.00000      Q =  0.00000    
      ITER =    16  T =  584.5097  P =  6.000000E+06  PHASES = VAPOR
      KODE = 2  NTRIAL =   3  T = 105.3556  P = 6.000186E+06  V =  0.00000      Q =  0.00000    
      ITER =    16  T =  584.5097  P =  6.000000E+06  PHASES = VAPOR
      KODE = 2  NTRIAL =   3  T = 105.3556  P = 6.000173E+06  V =  0.00000      Q =  0.00000    
      ITER =    16  T =  584.5066  P =  6.000000E+06  PHASES = VAPOR
      KODE = 2  NTRIAL =   3  T = 105.3556  P = 6.000173E+06  V =  0.00000      Q =  0.00000    
      ITER =    16  T =  584.5066  P =  6.000000E+06  PHASES = VAPOR
      KODE = 2  NTRIAL =   3  T = 105.3556  P = 6.000173E+06  V =  0.00000      Q =  0.00000    
      ITER =    16  T =  584.5066  P =  6.000000E+06  PHASES = VAPOR
      KODE = 2  NTRIAL =   3  T = 105.3556  P = 6.000173E+06  V =  0.00000      Q =  0.00000    
      ITER =    16  T =  584.5066  P =  6.000000E+06  PHASES = VAPOR
      KODE = 2  NTRIAL =   3  T = 105.3556  P = 6.000173E+06  V =  0.00000      Q =  0.00000    
      ITER =    16  T =  584.5066  P =  6.000000E+06  PHASES = VAPOR
      KODE = 2  NTRIAL =   3  T = 105.3556  P = 6.000173E+06  V =  0.00000      Q =  0.00000    
      ITER =    16  T =  584.5066  P =  6.000000E+06  PHASES = VAPOR
      KODE = 2  NTRIAL =   3  T = 105.3556  P = 6.000233E+06  V =  0.00000      Q =  0.00000    
      ITER =    16  T =  584.5066  P =  6.000000E+06  PHASES = VAPOR
      KODE = 2  NTRIAL =   3  T = 105.3556  P = 6.000233E+06  V =  0.00000      Q =  0.00000    
      ITER =    16  T =  584.5066  P =  6.000000E+06  PHASES = VAPOR
      KODE = 2  NTRIAL =   3  T = 105.3556  P = 6.000173E+06  V =  0.00000      Q =  0.00000    
      ITER =    16  T =  584.5097  P =  6.000000E+06  PHASES = VAPOR
      KODE = 2  NTRIAL =   3  T = 105.3556  P = 6.000173E+06  V =  0.00000      Q =  0.00000    
      ITER =    16  T =  584.5097  P =  6.000000E+06  PHASES = VAPOR
      KODE = 2  NTRIAL =   3  T = 105.3556  P = 6.000163E+06  V =  0.00000      Q =  0.00000    
      ITER =    16  T =  584.5066  P =  6.000000E+06  PHASES = VAPOR
      KODE = 2  NTRIAL =   3  T = 105.3556  P = 6.000163E+06  V =  0.00000      Q =  0.00000    
      ITER =    16  T =  584.5066  P =  6.000000E+06  PHASES = VAPOR
      KODE = 2  NTRIAL =   3  T = 105.3556  P = 6.000163E+06  V =  0.00000      Q =  0.00000    
      ITER =    16  T =  584.5066  P =  6.000000E+06  PHASES = VAPOR
      KODE = 2  NTRIAL =   3  T = 105.3556  P = 6.000163E+06  V =  0.00000      Q =  0.00000    
      ITER =    16  T =  584.5066  P =  6.000000E+06  PHASES = VAPOR
      KODE = 2  NTRIAL =   3  T = 105.3556  P = 6.000163E+06  V =  0.00000      Q =  0.00000    
      ITER =    16  T =  584.5066  P =  6.000000E+06  PHASES = VAPOR
      KODE = 2  NTRIAL =   3  T = 105.3556  P = 6.000163E+06  V =  0.00000      Q =  0.00000    
      ITER =    16  T =  584.5066  P =  6.000000E+06  PHASES = VAPOR
      KODE = 2  NTRIAL =   3  T = 105.3556  P = 6.000223E+06  V =  0.00000      Q =  0.00000    
      ITER =    16  T =  584.5066  P =  6.000000E+06  PHASES = VAPOR
      KODE = 2  NTRIAL =   3  T = 105.3556  P = 6.000223E+06  V =  0.00000      Q =  0.00000    
      ITER =    16  T =  584.5066  P =  6.000000E+06  PHASES = VAPOR
      KODE = 2  NTRIAL =   3  T = 105.3556  P = 6.000163E+06  V =  0.00000      Q =  0.00000    
      ITER =    16  T =  584.5097  P =  6.000000E+06  PHASES = VAPOR
      KODE = 2  NTRIAL =   3  T = 105.3556  P = 6.000163E+06  V =  0.00000      Q =  0.00000    
      ITER =    16  T =  584.5097  P =  6.000000E+06  PHASES = VAPOR
      KODE = 2  NTRIAL =   3  T = 105.3556  P = 6.000000E+06  V =  0.00000      Q =  0.00000    
      ITER =    16  T =  584.5066  P =  6.000000E+06  PHASES = VAPOR
      KODE = 2  NTRIAL =   3  T = 105.3556  P = 6.000000E+06  V =  0.00000      Q =  0.00000    
      ITER =    16  T =  584.5066  P =  6.000000E+06  PHASES = VAPOR
      KODE = 2  NTRIAL =   3  T = 105.3556  P = 6.000000E+06  V =  0.00000      Q =  0.00000    
      ITER =    16  T =  584.5066  P =  6.000000E+06  PHASES = VAPOR
      KODE = 2  NTRIAL =   3  T = 105.3556  P = 6.000000E+06  V =  0.00000      Q =  0.00000    
      ITER =    16  T =  584.5066  P =  6.000000E+06  PHASES = VAPOR
      KODE = 2  NTRIAL =   3  T = 105.3556  P = 6.000000E+06  V =  0.00000      Q =  0.00000    
      ITER =    16  T =  584.5066  P =  6.000000E+06  PHASES = VAPOR
      KODE = 2  NTRIAL =   3  T = 105.3556  P = 6.000000E+06  V =  0.00000      Q =  0.00000    
      ITER =    16  T =  584.5066  P =  6.000000E+06  PHASES = VAPOR
      KODE = 2  NTRIAL =   3  T = 105.3556  P = 6.000060E+06  V =  0.00000      Q =  0.00000    
      ITER =    16  T =  584.5066  P =  6.000000E+06  PHASES = VAPOR
      KODE = 2  NTRIAL =   3  T = 105.3556  P = 6.000060E+06  V =  0.00000      Q =  0.00000    
      ITER =    16  T =  584.5066  P =  6.000000E+06  PHASES = VAPOR
      KODE = 2  NTRIAL =   3  T = 105.3556  P = 6.000000E+06  V =  0.00000      Q =  0.00000    
      ITER =    16  T =  584.5097  P =  6.000000E+06  PHASES = VAPOR
      KODE = 2  NTRIAL =   3  T = 105.3556  P = 6.000000E+06  V =  0.00000      Q =  0.00000    
      ITER =    16  T =  584.5097  P =  6.000000E+06  PHASES = VAPOR
      KODE = 2  NTRIAL =   3  T = 105.3556  P = 6.000000E+06  V =  0.00000      Q =  0.00000    
      ITER =    16  T =  584.5066  P =  6.000000E+06  PHASES = VAPOR
      KODE = 2  NTRIAL =   3  T = 105.3556  P = 6.000000E+06  V =  0.00000      Q =  0.00000    
      ITER =    16  T =  584.5066  P =  6.000000E+06  PHASES = VAPOR
      KODE = 2  NTRIAL =   3  T = 105.3556  P = 6.000000E+06  V =  0.00000      Q =  0.00000    
      ITER =    16  T =  584.5066  P =  6.000000E+06  PHASES = VAPOR
      KODE = 2  NTRIAL =   3  T = 105.3556  P = 6.000000E+06  V =  0.00000      Q =  0.00000    
      ITER =    16  T =  584.5066  P =  6.000000E+06  PHASES = VAPOR
      KODE = 2  NTRIAL =   3  T = 105.3556  P = 6.000000E+06  V =  0.00000      Q =  0.00000    
      ITER =    16  T =  584.5066  P =  6.000000E+06  PHASES = VAPOR
      KODE = 2  NTRIAL =   3  T = 105.3556  P = 6.000000E+06  V =  0.00000      Q =  0.00000    
      ITER =    16  T =  584.5066  P =  6.000000E+06  PHASES = VAPOR
      KODE = 2  NTRIAL =   3  T = 105.3556  P = 6.000060E+06  V =  0.00000      Q =  0.00000    
      ITER =    16  T =  584.5066  P =  6.000000E+06  PHASES = VAPOR
      KODE = 2  NTRIAL =   3  T = 105.3556  P = 6.000060E+06  V =  0.00000      Q =  0.00000    
      ITER =    16  T =  584.5066  P =  6.000000E+06  PHASES = VAPOR
      KODE = 2  NTRIAL =   3  T = 105.3556  P = 6.000000E+06  V =  0.00000      Q =  0.00000    
      ITER =    16  T =  584.5097  P =  6.000000E+06  PHASES = VAPOR
      KODE = 2  NTRIAL =   3  T = 105.3556  P = 6.000000E+06  V =  0.00000      Q =  0.00000    
      ITER =    16  T =  584.5097  P =  6.000000E+06  PHASES = VAPOR
      KODE = 2  NTRIAL =   3  T = 105.3556  P = 6.000000E+06  V =  0.00000      Q =  0.00000    
      ITER =    16  T =  584.5066  P =  6.000000E+06  PHASES = VAPOR
      KODE = 2  NTRIAL =   3  T = 105.3556  P = 6.000000E+06  V =  0.00000      Q =  0.00000    
      ITER =    16  T =  584.5066  P =  6.000000E+06  PHASES = VAPOR
      KODE = 2  NTRIAL =   3  T = 105.3556  P = 6.000000E+06  V =  0.00000      Q =  0.00000    
      ITER =    16  T =  584.5066  P =  6.000000E+06  PHASES = VAPOR
      KODE = 2  NTRIAL =   3  T = 105.3556  P = 6.000000E+06  V =  0.00000      Q =  0.00000    
      ITER =    16  T =  584.5066  P =  6.000000E+06  PHASES = VAPOR
      KODE = 2  NTRIAL =   3  T = 105.3556  P = 6.000000E+06  V =  0.00000      Q =  0.00000    
      ITER =    16  T =  584.5066  P =  6.000000E+06  PHASES = VAPOR
      KODE = 2  NTRIAL =   3  T = 105.3556  P = 6.000000E+06  V =  0.00000      Q =  0.00000    
      ITER =    16  T =  584.5066  P =  6.000000E+06  PHASES = VAPOR
      KODE = 2  NTRIAL =   3  T = 105.3556  P = 6.000060E+06  V =  0.00000      Q =  0.00000    
      ITER =    16  T =  584.5066  P =  6.000000E+06  PHASES = VAPOR
      KODE = 2  NTRIAL =   3  T = 105.3556  P = 6.000060E+06  V =  0.00000      Q =  0.00000    
      ITER =    16  T =  584.5066  P =  6.000000E+06  PHASES = VAPOR
      KODE = 2  NTRIAL =   3  T = 105.3556  P = 6.000000E+06  V =  0.00000      Q =  0.00000    
      ITER =    16  T =  584.5097  P =  6.000000E+06  PHASES = VAPOR
      KODE = 2  NTRIAL =   3  T = 105.3556  P = 6.000000E+06  V =  0.00000      Q =  0.00000    
      ITER =    16  T =  584.5097  P =  6.000000E+06  PHASES = VAPOR
      KODE = 2  NTRIAL =   3  T = 105.3556  P = 6.000000E+06  V =  0.00000      Q =  0.00000    
      ITER =    16  T =  584.5066  P =  6.000000E+06  PHASES = VAPOR
      KODE = 2  NTRIAL =   3  T = 105.3556  P = 6.000000E+06  V =  0.00000      Q =  0.00000    
      ITER =    16  T =  584.5066  P =  6.000000E+06  PHASES = VAPOR
      KODE = 2  NTRIAL =   3  T = 105.3556  P = 6.000000E+06  V =  0.00000      Q =  0.00000    
      ITER =    16  T =  584.5066  P =  6.000000E+06  PHASES = VAPOR
      KODE = 2  NTRIAL =   3  T = 105.3556  P = 6.000000E+06  V =  0.00000      Q =  0.00000    
      ITER =    16  T =  584.5066  P =  6.000000E+06  PHASES = VAPOR
      KODE = 2  NTRIAL =   3  T = 105.3556  P = 6.000000E+06  V =  0.00000      Q =  0.00000    
      ITER =    16  T =  584.5066  P =  6.000000E+06  PHASES = VAPOR
      KODE = 2  NTRIAL =   3  T = 105.3556  P = 6.000000E+06  V =  0.00000      Q =  0.00000    
      ITER =    16  T =  584.5066  P =  6.000000E+06  PHASES = VAPOR
      KODE = 2  NTRIAL =   3  T = 105.3556  P = 6.000060E+06  V =  0.00000      Q =  0.00000    
      ITER =    16  T =  584.5066  P =  6.000000E+06  PHASES = VAPOR
      KODE = 2  NTRIAL =   3  T = 105.3556  P = 6.000060E+06  V =  0.00000      Q =  0.00000    
      ITER =    16  T =  584.5066  P =  6.000000E+06  PHASES = VAPOR
      KODE = 2  NTRIAL =   3  T = 105.3556  P = 6.000000E+06  V =  0.00000      Q =  0.00000    
      ITER =    16  T =  584.5097  P =  6.000000E+06  PHASES = VAPOR
      KODE = 2  NTRIAL =   3  T = 105.3556  P = 6.000000E+06  V =  0.00000      Q =  0.00000    
      ITER =    16  T =  584.5097  P =  6.000000E+06  PHASES = VAPOR
      KODE = 2  NTRIAL =   3  T = 105.3556  P = 6.000000E+06  V =  0.00000      Q =  0.00000    
      ITER =    16  T =  584.5066  P =  6.000000E+06  PHASES = VAPOR
      KODE = 2  NTRIAL =   3  T = 105.3556  P = 6.000000E+06  V =  0.00000      Q =  0.00000    
      ITER =    16  T =  584.5066  P =  6.000000E+06  PHASES = VAPOR
      KODE = 2  NTRIAL =   3  T = 105.3556  P = 6.000000E+06  V =  0.00000      Q =  0.00000    
      ITER =    16  T =  584.5066  P =  6.000000E+06  PHASES = VAPOR
      KODE = 2  NTRIAL =   3  T = 105.3556  P = 6.000000E+06  V =  0.00000      Q =  0.00000    
      ITER =    16  T =  584.5066  P =  6.000000E+06  PHASES = VAPOR
      KODE = 2  NTRIAL =   3  T = 105.3556  P = 6.000000E+06  V =  0.00000      Q =  0.00000    
      ITER =    16  T =  584.5066  P =  6.000000E+06  PHASES = VAPOR
      KODE = 2  NTRIAL =   3  T = 105.3556  P = 6.000000E+06  V =  0.00000      Q =  0.00000    
      ITER =    16  T =  584.5066  P =  6.000000E+06  PHASES = VAPOR
      KODE = 2  NTRIAL =   3  T = 105.3556  P = 6.000060E+06  V =  0.00000      Q =  0.00000    
      ITER =    16  T =  584.5066  P =  6.000000E+06  PHASES = VAPOR
      KODE = 2  NTRIAL =   3  T = 105.3556  P = 6.000060E+06  V =  0.00000      Q =  0.00000    
      ITER =    16  T =  584.5066  P =  6.000000E+06  PHASES = VAPOR
      KODE = 2  NTRIAL =   3  T = 105.3556  P = 6.000000E+06  V =  0.00000      Q =  0.00000    
      ITER =    16  T =  584.5097  P =  6.000000E+06  PHASES = VAPOR
      KODE = 2  NTRIAL =   3  T = 105.3556  P = 6.000000E+06  V =  0.00000      Q =  0.00000    
      ITER =    16  T =  584.5097  P =  6.000000E+06  PHASES = VAPOR
      KODE = 2  NTRIAL =   3  T = 105.3556  P = 6.000000E+06  V =  0.00000      Q =  0.00000    
      ITER =    16  T =  584.5066  P =  6.000000E+06  PHASES = VAPOR
      KODE = 2  NTRIAL =   3  T = 105.3556  P = 6.000000E+06  V =  0.00000      Q =  0.00000    
      ITER =    16  T =  584.5066  P =  6.000000E+06  PHASES = VAPOR
      KODE = 2  NTRIAL =   3  T = 105.3556  P = 6.000000E+06  V =  0.00000      Q =  0.00000    
      ITER =    16  T =  584.5066  P =  6.000000E+06  PHASES = VAPOR
      KODE = 2  NTRIAL =   3  T = 105.3556  P = 6.000000E+06  V =  0.00000      Q =  0.00000    
      ITER =    16  T =  584.5066  P =  6.000000E+06  PHASES = VAPOR
      KODE = 2  NTRIAL =   3  T = 105.3556  P = 6.000000E+06  V =  0.00000      Q =  0.00000    
      ITER =    16  T =  584.5066  P =  6.000000E+06  PHASES = VAPOR
      KODE = 2  NTRIAL =   3  T = 105.3556  P = 6.000000E+06  V =  0.00000      Q =  0.00000    
      ITER =    16  T =  584.5066  P =  6.000000E+06  PHASES = VAPOR
      KODE = 2  NTRIAL =   3  T = 105.3556  P = 6.000060E+06  V =  0.00000      Q =  0.00000    
      ITER =    16  T =  584.5066  P =  6.000000E+06  PHASES = VAPOR
      KODE = 2  NTRIAL =   3  T = 105.3556  P = 6.000060E+06  V =  0.00000      Q =  0.00000    
      ITER =    16  T =  584.5066  P =  6.000000E+06  PHASES = VAPOR
      KODE = 2  NTRIAL =   3  T = 105.3556  P = 6.000000E+06  V =  0.00000      Q =  0.00000    
      ITER =    16  T =  584.5097  P =  6.000000E+06  PHASES = VAPOR
      KODE = 2  NTRIAL =   3  T = 105.3556  P = 6.000000E+06  V =  0.00000      Q =  0.00000    
      ITER =    16  T =  584.5097  P =  6.000000E+06  PHASES = VAPOR
      KODE = 2  NTRIAL =   3  T = 105.3556  P = 6.000000E+06  V =  0.00000      Q =  0.00000    
      ITER =    16  T =  584.5066  P =  6.000000E+06  PHASES = VAPOR
      KODE = 2  NTRIAL =   3  T = 105.3556  P = 6.000000E+06  V =  0.00000      Q =  0.00000    
      ITER =    16  T =  584.5066  P =  6.000000E+06  PHASES = VAPOR
      KODE = 2  NTRIAL =   3  T = 105.3556  P = 6.000000E+06  V =  0.00000      Q =  0.00000    
      ITER =    16  T =  584.5066  P =  6.000000E+06  PHASES = VAPOR
      KODE = 2  NTRIAL =   3  T = 105.3556  P = 6.000000E+06  V =  0.00000      Q =  0.00000    
      ITER =    16  T =  584.5066  P =  6.000000E+06  PHASES = VAPOR
      KODE = 2  NTRIAL =   3  T = 105.3556  P = 6.000000E+06  V =  0.00000      Q =  0.00000    
      ITER =    16  T =  584.5066  P =  6.000000E+06  PHASES = VAPOR
      KODE = 2  NTRIAL =   3  T = 105.3556  P = 6.000000E+06  V =  0.00000      Q =  0.00000    
      ITER =    16  T =  584.5066  P =  6.000000E+06  PHASES = VAPOR
      KODE = 2  NTRIAL =   3  T = 105.3556  P = 6.000060E+06  V =  0.00000      Q =  0.00000    
      ITER =    16  T =  584.5066  P =  6.000000E+06  PHASES = VAPOR
      KODE = 2  NTRIAL =   3  T = 105.3556  P = 6.000060E+06  V =  0.00000      Q =  0.00000    
      ITER =    16  T =  584.5066  P =  6.000000E+06  PHASES = VAPOR
      KODE = 2  NTRIAL =   3  T = 105.3556  P = 6.000000E+06  V =  0.00000      Q =  0.00000    
      ITER =    16  T =  584.5097  P =  6.000000E+06  PHASES = VAPOR
      KODE = 2  NTRIAL =   3  T = 105.3556  P = 6.000000E+06  V =  0.00000      Q =  0.00000    
      ITER =    16  T =  584.5097  P =  6.000000E+06  PHASES = VAPOR
      KODE = 2  NTRIAL =   3  T = 105.3556  P = 6.000000E+06  V =  0.00000      Q =  0.00000    
      ITER =    16  T =  584.5066  P =  6.000000E+06  PHASES = VAPOR
      KODE = 2  NTRIAL =   3  T = 105.3556  P = 6.000000E+06  V =  0.00000      Q =  0.00000    
      ITER =    16  T =  584.5066  P =  6.000000E+06  PHASES = VAPOR
      KODE = 2  NTRIAL =   3  T = 105.3556  P = 6.000000E+06  V =  0.00000      Q =  0.00000    
      ITER =    16  T =  584.5066  P =  6.000000E+06  PHASES = VAPOR
      KODE = 2  NTRIAL =   3  T = 105.3556  P = 6.000000E+06  V =  0.00000      Q =  0.00000    
      ITER =    16  T =  584.5066  P =  6.000000E+06  PHASES = VAPOR
      KODE = 2  NTRIAL =   3  T = 105.3556  P = 6.000000E+06  V =  0.00000      Q =  0.00000    
      ITER =    16  T =  584.5066  P =  6.000000E+06  PHASES = VAPOR
      KODE = 2  NTRIAL =   3  T = 105.3556  P = 6.000000E+06  V =  0.00000      Q =  0.00000    
      ITER =    16  T =  584.5066  P =  6.000000E+06  PHASES = VAPOR
      KODE = 2  NTRIAL =   3  T = 105.3556  P = 6.000060E+06  V =  0.00000      Q =  0.00000    
      ITER =    16  T =  584.5066  P =  6.000000E+06  PHASES = VAPOR
      KODE = 2  NTRIAL =   3  T = 105.3556  P = 6.000060E+06  V =  0.00000      Q =  0.00000    
      ITER =    16  T =  584.5066  P =  6.000000E+06  PHASES = VAPOR
      KODE = 2  NTRIAL =   3  T = 105.3556  P = 6.000000E+06  V =  0.00000      Q =  0.00000    
      ITER =    16  T =  584.5097  P =  6.000000E+06  PHASES = VAPOR
      KODE = 2  NTRIAL =   3  T = 105.3556  P = 6.000000E+06  V =  0.00000      Q =  0.00000    
      ITER =    16  T =  584.5097  P =  6.000000E+06  PHASES = VAPOR
      KODE = 2  NTRIAL =   3  T = 105.3556  P = 6.000000E+06  V =  0.00000      Q =  0.00000    
      ITER =    16  T =  584.5066  P =  6.000000E+06  PHASES = VAPOR
      KODE = 2  NTRIAL =   3  T = 105.3556  P = 6.000000E+06  V =  0.00000      Q =  0.00000    
      ITER =    16  T =  584.5066  P =  6.000000E+06  PHASES = VAPOR
      KODE = 2  NTRIAL =   3  T = 105.3556  P = 6.000000E+06  V =  0.00000      Q =  0.00000    
      ITER =    16  T =  584.5066  P =  6.000000E+06  PHASES = VAPOR
      KODE = 2  NTRIAL =   3  T = 105.3556  P = 6.000000E+06  V =  0.00000      Q =  0.00000    
      ITER =    16  T =  584.5066  P =  6.000000E+06  PHASES = VAPOR
      KODE = 2  NTRIAL =   3  T = 105.3556  P = 6.000000E+06  V =  0.00000      Q =  0.00000    
      ITER =    16  T =  584.5066  P =  6.000000E+06  PHASES = VAPOR
      KODE = 2  NTRIAL =   3  T = 105.3556  P = 6.000000E+06  V =  0.00000      Q =  0.00000    
      ITER =    16  T =  584.5066  P =  6.000000E+06  PHASES = VAPOR
      KODE = 2  NTRIAL =   3  T = 105.3556  P = 6.000060E+06  V =  0.00000      Q =  0.00000    
      ITER =    16  T =  584.5066  P =  6.000000E+06  PHASES = VAPOR
      KODE = 2  NTRIAL =   3  T = 105.3556  P = 6.000060E+06  V =  0.00000      Q =  0.00000    
      ITER =    16  T =  584.5066  P =  6.000000E+06  PHASES = VAPOR
      KODE = 2  NTRIAL =   3  T = 105.3556  P = 6.000000E+06  V =  0.00000      Q =  0.00000    
      ITER =    16  T =  584.5097  P =  6.000000E+06  PHASES = VAPOR
      KODE = 2  NTRIAL =   3  T = 105.3556  P = 6.000000E+06  V =  0.00000      Q =  0.00000    
      ITER =    16  T =  584.5097  P =  6.000000E+06  PHASES = VAPOR
      KODE = 2  NTRIAL =   3  T = 105.3556  P = 6.000000E+06  V =  0.00000      Q =  0.00000    
      ITER =    16  T =  584.5066  P =  6.000000E+06  PHASES = VAPOR
      KODE = 2  NTRIAL =   3  T = 105.3556  P = 6.000000E+06  V =  0.00000      Q =  0.00000    
      ITER =    16  T =  584.5066  P =  6.000000E+06  PHASES = VAPOR
      KODE = 2  NTRIAL =   3  T = 105.3556  P = 6.000000E+06  V =  0.00000      Q =  0.00000    
      ITER =    16  T =  584.5066  P =  6.000000E+06  PHASES = VAPOR
      KODE = 2  NTRIAL =   3  T = 105.3556  P = 6.000000E+06  V =  0.00000      Q =  0.00000    
      ITER =    16  T =  584.5066  P =  6.000000E+06  PHASES = VAPOR
      KODE = 2  NTRIAL =   3  T = 105.3556  P = 6.000000E+06  V =  0.00000      Q =  0.00000    
      ITER =    16  T =  584.5066  P =  6.000000E+06  PHASES = VAPOR
      KODE = 2  NTRIAL =   3  T = 105.3556  P = 6.000000E+06  V =  0.00000      Q =  0.00000    
      ITER =    16  T =  584.5066  P =  6.000000E+06  PHASES = VAPOR
      KODE = 2  NTRIAL =   3  T = 105.3556  P = 6.000060E+06  V =  0.00000      Q =  0.00000    
      ITER =    16  T =  584.5066  P =  6.000000E+06  PHASES = VAPOR
      KODE = 2  NTRIAL =   3  T = 105.3556  P = 6.000060E+06  V =  0.00000      Q =  0.00000    
      ITER =    16  T =  584.5066  P =  6.000000E+06  PHASES = VAPOR
      KODE = 2  NTRIAL =   3  T = 105.3556  P = 6.000000E+06  V =  0.00000      Q =  0.00000    
      ITER =    16  T =  584.5097  P =  6.000000E+06  PHASES = VAPOR
      KODE = 2  NTRIAL =   3  T = 105.3556  P = 6.000000E+06  V =  0.00000      Q =  0.00000    
      ITER =    16  T =  584.5097  P =  6.000000E+06  PHASES = VAPOR
      KODE = 2  NTRIAL =   3  T = 105.3556  P = 6.000000E+06  V =  0.00000      Q =  0.00000    
      ITER =    16  T =  584.5066  P =  6.000000E+06  PHASES = VAPOR
      KODE = 2  NTRIAL =   3  T = 105.3556  P = 6.000000E+06  V =  0.00000      Q =  0.00000    
      ITER =    16  T =  584.5066  P =  6.000000E+06  PHASES = VAPOR
      KODE = 2  NTRIAL =   3  T = 105.3556  P = 6.000000E+06  V =  0.00000      Q =  0.00000    
      ITER =    16  T =  584.5066  P =  6.000000E+06  PHASES = VAPOR
      KODE = 2  NTRIAL =   3  T = 105.3556  P = 6.000000E+06  V =  0.00000      Q =  0.00000    
      ITER =    16  T =  584.5066  P =  6.000000E+06  PHASES = VAPOR
      KODE = 2  NTRIAL =   3  T = 105.3556  P = 6.000000E+06  V =  0.00000      Q =  0.00000    
      ITER =    16  T =  584.5066  P =  6.000000E+06  PHASES = VAPOR
      KODE = 2  NTRIAL =   3  T = 105.3556  P = 6.000000E+06  V =  0.00000      Q =  0.00000    
      ITER =    16  T =  584.5066  P =  6.000000E+06  PHASES = VAPOR
      KODE = 2  NTRIAL =   3  T = 105.3556  P = 6.000060E+06  V =  0.00000      Q =  0.00000    
      ITER =    16  T =  584.5066  P =  6.000000E+06  PHASES = VAPOR
      KODE = 2  NTRIAL =   3  T = 105.3556  P = 6.000060E+06  V =  0.00000      Q =  0.00000    
      ITER =    16  T =  584.5066  P =  6.000000E+06  PHASES = VAPOR
      KODE = 2  NTRIAL =   3  T = 105.3556  P = 6.000000E+06  V =  0.00000      Q =  0.00000    
      ITER =    16  T =  584.5097  P =  6.000000E+06  PHASES = VAPOR
      KODE = 2  NTRIAL =   3  T = 105.3556  P = 6.000000E+06  V =  0.00000      Q =  0.00000    
      ITER =    16  T =  584.5097  P =  6.000000E+06  PHASES = VAPOR
      KODE = 2  NTRIAL =   3  T = 105.3556  P = 6.000000E+06  V =  0.00000      Q =  0.00000    
      ITER =    16  T =  584.5066  P =  6.000000E+06  PHASES = VAPOR
      KODE = 2  NTRIAL =   3  T = 105.3556  P = 6.000000E+06  V =  0.00000      Q =  0.00000    
      ITER =    16  T =  584.5066  P =  6.000000E+06  PHASES = VAPOR
      KODE = 2  NTRIAL =   3  T = 105.3556  P = 6.000000E+06  V =  0.00000      Q =  0.00000    
      ITER =    16  T =  584.5066  P =  6.000000E+06  PHASES = VAPOR
      KODE = 2  NTRIAL =   3  T = 105.3556  P = 6.000000E+06  V =  0.00000      Q =  0.00000    
      ITER =    16  T =  584.5066  P =  6.000000E+06  PHASES = VAPOR
      KODE = 2  NTRIAL =   3  T = 105.3556  P = 6.000000E+06  V =  0.00000      Q =  0.00000    
      ITER =    16  T =  584.5066  P =  6.000000E+06  PHASES = VAPOR
      KODE = 2  NTRIAL =   3  T = 105.3556  P = 6.000000E+06  V =  0.00000      Q =  0.00000    
      ITER =    16  T =  584.5066  P =  6.000000E+06  PHASES = VAPOR
      KODE = 2  NTRIAL =   3  T = 105.3556  P = 6.000060E+06  V =  0.00000      Q =  0.00000    
      ITER =    16  T =  584.5066  P =  6.000000E+06  PHASES = VAPOR
      KODE = 2  NTRIAL =   3  T = 105.3556  P = 6.000060E+06  V =  0.00000      Q =  0.00000    
      ITER =    16  T =  584.5066  P =  6.000000E+06  PHASES = VAPOR
      KODE = 2  NTRIAL =   3  T = 105.3556  P = 6.000000E+06  V =  0.00000      Q =  0.00000    
      ITER =    16  T =  584.5097  P =  6.000000E+06  PHASES = VAPOR
      KODE = 2  NTRIAL =   3  T = 105.3556  P = 6.000000E+06  V =  0.00000      Q =  0.00000    
      ITER =    16  T =  584.5097  P =  6.000000E+06  PHASES = VAPOR
      KODE = 2  NTRIAL =   3  T = 105.3556  P = 6.000000E+06  V =  0.00000      Q =  0.00000    
      ITER =    16  T =  584.5066  P =  6.000000E+06  PHASES = VAPOR
      KODE = 2  NTRIAL =   3  T = 105.3556  P = 6.000000E+06  V =  0.00000      Q =  0.00000    
      ITER =    16  T =  584.5066  P =  6.000000E+06  PHASES = VAPOR
      KODE = 2  NTRIAL =   3  T = 105.3556  P = 6.000000E+06  V =  0.00000      Q =  0.00000    
      ITER =    16  T =  584.5066  P =  6.000000E+06  PHASES = VAPOR
      KODE = 2  NTRIAL =   3  T = 105.3556  P = 6.000000E+06  V =  0.00000      Q =  0.00000    
      ITER =    16  T =  584.5066  P =  6.000000E+06  PHASES = VAPOR
      KODE = 2  NTRIAL =   3  T = 105.3556  P = 6.000000E+06  V =  0.00000      Q =  0.00000    
      ITER =    16  T =  584.5066  P =  6.000000E+06  PHASES = VAPOR
      KODE = 2  NTRIAL =   3  T = 105.3556  P = 6.000000E+06  V =  0.00000      Q =  0.00000    
      ITER =    16  T =  584.5066  P =  6.000000E+06  PHASES = VAPOR
      KODE = 2  NTRIAL =   3  T = 105.3556  P = 6.000000E+06  V =  0.00000      Q =  0.00000    
      ITER =    16  T =  584.5066  P =  6.000000E+06  PHASES = VAPOR
      KODE = 2  NTRIAL =   3  T = 105.3556  P = 6.000000E+06  V =  0.00000      Q =  0.00000    
      ITER =    16  T =  584.5066  P =  6.000000E+06  PHASES = VAPOR
      KODE = 2  NTRIAL =   3  T = 105.3556  P = 6.000000E+06  V =  0.00000      Q =  0.00000    
      ITER =    16  T =  584.5066  P =  6.000000E+06  PHASES = VAPOR
      KODE = 2  NTRIAL =   3  T = 105.3556  P = 6.000000E+06  V =  0.00000      Q =  0.00000    
      ITER =    16  T =  584.5066  P =  6.000000E+06  PHASES = VAPOR
      KODE = 2  NTRIAL =   3  T = 105.3556  P = 6.000000E+06  V =  0.00000      Q =  0.00000    
      ITER =    16  T =  584.5066  P =  6.000000E+06  PHASES = VAPOR
      KODE = 2  NTRIAL =   3  T = 105.3556  P = 6.000000E+06  V =  0.00000      Q =  0.00000    
      ITER =    16  T =  584.5066  P =  6.000000E+06  PHASES = VAPOR
      KODE = 2  NTRIAL =   3  T = 105.3556  P = 6.000000E+06  V =  0.00000      Q =  0.00000    
      ITER =    16  T =  584.5066  P =  6.000000E+06  PHASES = VAPOR
      KODE = 2  NTRIAL =   3  T = 105.3556  P = 6.000000E+06  V =  0.00000      Q =  0.00000    
      ITER =    16  T =  584.5066  P =  6.000000E+06  PHASES = VAPOR
      KODE = 2  NTRIAL =   3  T = 105.3556  P = 6.000060E+06  V =  0.00000      Q =  0.00000    
      ITER =    16  T =  584.5066  P =  6.000000E+06  PHASES = VAPOR
      KODE = 2  NTRIAL =   3  T = 105.3556  P = 6.000060E+06  V =  0.00000      Q =  0.00000    
      ITER =    16  T =  584.5066  P =  6.000000E+06  PHASES = VAPOR
      KODE = 2  NTRIAL =   3  T = 105.3556  P = 6.000000E+06  V =  0.00000      Q =  0.00000    
      ITER =    16  T =  584.5097  P =  6.000000E+06  PHASES = VAPOR
      KODE = 2  NTRIAL =   3  T = 105.3556  P = 6.000000E+06  V =  0.00000      Q =  0.00000    
      ITER =    16  T =  584.5097  P =  6.000000E+06  PHASES = VAPOR
      KODE = 2  NTRIAL =   3  T = 105.3556  P = 6.000000E+06  V =  0.00000      Q =  0.00000    
      ITER =    16  T =  584.5066  P =  6.000000E+06  PHASES = VAPOR
      KODE = 2  NTRIAL =   3  T = 105.3556  P = 6.000000E+06  V =  0.00000      Q =  0.00000    
      ITER =    16  T =  584.5066  P =  6.000000E+06  PHASES = VAPOR
      KODE = 2  NTRIAL =   3  T = 105.3556  P = 6.000000E+06  V =  0.00000      Q =  0.00000    
      ITER =    16  T =  584.5066  P =  6.000000E+06  PHASES = VAPOR
      KODE = 2  NTRIAL =   3  T = 105.3556  P = 6.000000E+06  V =  0.00000      Q =  0.00000    
      ITER =    16  T =  584.5066  P =  6.000000E+06  PHASES = VAPOR
      KODE = 2  NTRIAL =   3  T = 105.3556  P = 6.000000E+06  V =  0.00000      Q =  0.00000    
      ITER =    16  T =  584.5066  P =  6.000000E+06  PHASES = VAPOR
      KODE = 2  NTRIAL =   3  T = 105.3556  P = 6.000000E+06  V =  0.00000      Q =  0.00000    
      ITER =    16  T =  584.5066  P =  6.000000E+06  PHASES = VAPOR
      KODE = 2  NTRIAL =   3  T = 105.3556  P = 6.000000E+06  V =  0.00000      Q =  0.00000    
      ITER =    16  T =  584.5066  P =  6.000000E+06  PHASES = VAPOR
      KODE = 2  NTRIAL =   3  T = 105.3556  P = 6.000000E+06  V =  0.00000      Q =  0.00000    
      ITER =    16  T =  584.5066  P =  6.000000E+06  PHASES = VAPOR
      KODE = 2  NTRIAL =   3  T = 105.3556  P = 6.000000E+06  V =  0.00000      Q =  0.00000    
      ITER =    16  T =  584.5066  P =  6.000000E+06  PHASES = VAPOR
      KODE = 2  NTRIAL =   3  T = 105.3556  P = 6.000000E+06  V =  0.00000      Q =  0.00000    
      ITER =    16  T =  584.5066  P =  6.000000E+06  PHASES = VAPOR
      KODE = 2  NTRIAL =   3  T = 105.3556  P = 6.000000E+06  V =  0.00000      Q =  0.00000    
      ITER =    16  T =  584.5066  P =  6.000000E+06  PHASES = VAPOR
      KODE = 2  NTRIAL =   3  T = 105.3556  P = 6.000000E+06  V =  0.00000      Q =  0.00000    
      ITER =    16  T =  584.5066  P =  6.000000E+06  PHASES = VAPOR
      KODE = 2  NTRIAL =   3  T = 105.3556  P = 6.000000E+06  V =  0.00000      Q =  0.00000    
      ITER =    16  T =  584.5066  P =  6.000000E+06  PHASES = VAPOR
      KODE = 2  NTRIAL =   3  T = 105.3556  P = 6.000000E+06  V =  0.00000      Q =  0.00000    
      ITER =    16  T =  584.5066  P =  6.000000E+06  PHASES = VAPOR
      KODE = 2  NTRIAL =   3  T = 105.3556  P = 6.000000E+06  V =  0.00000      Q =  0.00000    
      ITER =    16  T =  584.5066  P =  6.000000E+06  PHASES = VAPOR
      KODE = 2  NTRIAL =   3  T = 105.3556  P = 6.000000E+06  V =  0.00000      Q =  0.00000    
      ITER =    16  T =  584.5066  P =  6.000000E+06  PHASES = VAPOR
      KODE = 2  NTRIAL =   3  T = 105.3556  P = 6.000000E+06  V =  0.00000      Q =  0.00000    
      ITER =    16  T =  584.5066  P =  6.000000E+06  PHASES = VAPOR
      KODE = 2  NTRIAL =   3  T = 105.3556  P = 6.000000E+06  V =  0.00000      Q =  0.00000    
      ITER =    16  T =  584.5066  P =  6.000000E+06  PHASES = VAPOR
      KODE = 2  NTRIAL =   3  T = 105.3556  P = 6.000000E+06  V =  0.00000      Q =  0.00000    
      ITER =    16  T =  584.5066  P =  6.000000E+06  PHASES = VAPOR
      KODE = 2  NTRIAL =   3  T = 105.3556  P = 6.000000E+06  V =  0.00000      Q =  0.00000    
      ITER =    16  T =  584.5066  P =  6.000000E+06  PHASES = VAPOR
      KODE = 2  NTRIAL =   3  T = 105.3556  P = 6.000000E+06  V =  0.00000      Q =  0.00000    
      ITER =    16  T =  584.5066  P =  6.000000E+06  PHASES = VAPOR
      KODE = 2  NTRIAL =   3  T = 105.3556  P = 6.000000E+06  V =  0.00000      Q =  0.00000    
      ITER =    16  T =  584.5066  P =  6.000000E+06  PHASES = VAPOR
      KODE = 2  NTRIAL =   3  T = 105.3556  P = 6.000000E+06  V =  0.00000      Q =  0.00000    
      ITER =    16  T =  584.5066  P =  6.000000E+06  PHASES = VAPOR
      KODE = 2  NTRIAL =   3  T = 105.3556  P = 6.000000E+06  V =  0.00000      Q =  0.00000    
      ITER =    16  T =  584.5066  P =  6.000000E+06  PHASES = VAPOR
      KODE = 2  NTRIAL =   3  T = 105.3556  P = 6.000000E+06  V =  0.00000      Q =  0.00000    
      ITER =    16  T =  584.5066  P =  6.000000E+06  PHASES = VAPOR
      KODE = 2  NTRIAL =   3  T = 105.3556  P = 6.000000E+06  V =  0.00000      Q =  0.00000    
      ITER =    16  T =  584.5066  P =  6.000000E+06  PHASES = VAPOR
      KODE = 2  NTRIAL =   3  T = 105.3556  P = 6.000000E+06  V =  0.00000      Q =  0.00000    
      ITER =    16  T =  584.5066  P =  6.000000E+06  PHASES = VAPOR
      KODE = 2  NTRIAL =   3  T = 105.3556  P = 6.000000E+06  V =  0.00000      Q =  0.00000    
      ITER =    16  T =  584.5066  P =  6.000000E+06  PHASES = VAPOR
      KODE = 2  NTRIAL =   3  T = 105.3556  P = 6.000000E+06  V =  0.00000      Q =  0.00000    
      ITER =    16  T =  584.5066  P =  6.000000E+06  PHASES = VAPOR
      KODE = 2  NTRIAL =   3  T = 105.3556  P = 6.000000E+06  V =  0.00000      Q =  0.00000    
      ITER =    16  T =  584.5066  P =  6.000000E+06  PHASES = VAPOR
      KODE = 2  NTRIAL =   3  T = 105.3556  P = 6.000000E+06  V =  0.00000      Q =  0.00000    
      ITER =    16  T =  584.5066  P =  6.000000E+06  PHASES = VAPOR
      KODE = 2  NTRIAL =   3  T = 105.3556  P = 6.000000E+06  V =  0.00000      Q =  0.00000    
      ITER =    16  T =  584.5066  P =  6.000000E+06  PHASES = VAPOR
      KODE = 2  NTRIAL =   3  T = 105.3556  P = 6.000000E+06  V =  0.00000      Q =  0.00000    
      ITER =    16  T =  584.5066  P =  6.000000E+06  PHASES = VAPOR
      KODE = 2  NTRIAL =   3  T = 105.3556  P = 6.000000E+06  V =  0.00000      Q =  0.00000    
      ITER =    16  T =  584.5066  P =  6.000000E+06  PHASES = VAPOR
      KODE = 2  NTRIAL =   3  T = 105.3556  P = 6.000000E+06  V =  0.00000      Q =  0.00000    
      ITER =    16  T =  584.5066  P =  6.000000E+06  PHASES = VAPOR
      KODE = 2  NTRIAL =   3  T = 105.3556  P = 6.000000E+06  V =  0.00000      Q =  0.00000    
      ITER =    16  T =  584.5066  P =  6.000000E+06  PHASES = VAPOR
      KODE = 2  NTRIAL =   3  T = 105.3556  P = 6.000000E+06  V =  0.00000      Q =  0.00000    
      ITER =    16  T =  584.5066  P =  6.000000E+06  PHASES = VAPOR
      KODE = 2  NTRIAL =   3  T = 105.3556  P = 6.000000E+06  V =  0.00000      Q =  0.00000    
      ITER =    16  T =  584.5066  P =  6.000000E+06  PHASES = VAPOR
      KODE = 2  NTRIAL =   3  T = 105.3556  P = 6.000000E+06  V =  0.00000      Q =  0.00000    
      ITER =    16  T =  584.5066  P =  6.000000E+06  PHASES = VAPOR
      KODE = 2  NTRIAL =   3  T = 105.3556  P = 6.000000E+06  V =  0.00000      Q =  0.00000    
      ITER =    16  T =  584.5066  P =  6.000000E+06  PHASES = VAPOR
      KODE = 2  NTRIAL =   3  T = 105.3556  P = 6.000000E+06  V =  0.00000      Q =  0.00000    
      ITER =    16  T =  584.5066  P =  6.000000E+06  PHASES = VAPOR
      KODE = 2  NTRIAL =   3  T = 105.3556  P = 6.000000E+06  V =  0.00000      Q =  0.00000    
      ITER =    16  T =  584.5066  P =  6.000000E+06  PHASES = VAPOR
      KODE = 2  NTRIAL =   3  T = 105.3556  P = 6.000000E+06  V =  0.00000      Q =  0.00000    
      ITER =    16  T =  584.5066  P =  6.000000E+06  PHASES = VAPOR
      KODE = 2  NTRIAL =   3  T = 105.3556  P = 6.000000E+06  V =  0.00000      Q =  0.00000    
      ITER =    16  T =  584.5066  P =  6.000000E+06  PHASES = VAPOR
      KODE = 2  NTRIAL =   3  T = 105.3556  P = 6.000000E+06  V =  0.00000      Q =  0.00000    
      ITER =    16  T =  584.5066  P =  6.000000E+06  PHASES = VAPOR
      KODE = 2  NTRIAL =   3  T = 105.3556  P = 6.000000E+06  V =  0.00000      Q =  0.00000    
      ITER =    16  T =  584.5066  P =  6.000000E+06  PHASES = VAPOR
      KODE = 2  NTRIAL =   3  T = 105.3556  P = 6.000000E+06  V =  0.00000      Q =  0.00000    
      ITER =    16  T =  584.5066  P =  6.000000E+06  PHASES = VAPOR
      KODE = 2  NTRIAL =   3  T = 105.3556  P = 6.000000E+06  V =  0.00000      Q =  0.00000    
      ITER =    16  T =  584.5066  P =  6.000000E+06  PHASES = VAPOR
      KODE = 2  NTRIAL =   3  T = 105.3556  P = 6.000000E+06  V =  0.00000      Q =  0.00000    
      ITER =    16  T =  584.5066  P =  6.000000E+06  PHASES = VAPOR
      KODE = 2  NTRIAL =   3  T = 105.3556  P = 6.000000E+06  V =  0.00000      Q =  0.00000    
      ITER =    16  T =  584.5066  P =  6.000000E+06  PHASES = VAPOR
      KODE = 2  NTRIAL =   3  T = 105.3556  P = 6.000000E+06  V =  0.00000      Q =  0.00000    
      ITER =    16  T =  584.5066  P =  6.000000E+06  PHASES = VAPOR
      KODE = 2  NTRIAL =   3  T = 105.3556  P = 6.000000E+06  V =  0.00000      Q =  0.00000    
      ITER =    16  T =  584.5066  P =  6.000000E+06  PHASES = VAPOR
      KODE = 2  NTRIAL =   3  T = 105.3556  P = 6.000000E+06  V =  0.00000      Q =  0.00000    
      ITER =    16  T =  584.5066  P =  6.000000E+06  PHASES = VAPOR
      KODE = 2  NTRIAL =   3  T = 105.3556  P = 6.000000E+06  V =  0.00000      Q =  0.00000    
      ITER =    16  T =  584.5066  P =  6.000000E+06  PHASES = VAPOR
      KODE = 2  NTRIAL =   3  T = 105.3556  P = 6.000000E+06  V =  0.00000      Q =  0.00000    
      ITER =    16  T =  584.5066  P =  6.000000E+06  PHASES = VAPOR
      KODE = 2  NTRIAL =   3  T = 105.3556  P = 6.000000E+06  V =  0.00000      Q =  0.00000    
      ITER =    16  T =  584.5066  P =  6.000000E+06  PHASES = VAPOR
      KODE = 2  NTRIAL =   3  T = 105.3556  P = 6.000000E+06  V =  0.00000      Q =  0.00000    
      ITER =    16  T =  584.5066  P =  6.000000E+06  PHASES = VAPOR
      KODE = 2  NTRIAL =   3  T = 105.3556  P = 6.000000E+06  V =  0.00000      Q =  0.00000    
      ITER =    16  T =  584.5066  P =  6.000000E+06  PHASES = VAPOR
      KODE = 2  NTRIAL =   3  T = 105.3556  P = 6.000000E+06  V =  0.00000      Q =  0.00000    
      ITER =    16  T =  584.5066  P =  6.000000E+06  PHASES = VAPOR
      KODE = 2  NTRIAL =   3  T = 105.3556  P = 6.000000E+06  V =  0.00000      Q =  0.00000    
      ITER =    16  T =  584.5066  P =  6.000000E+06  PHASES = VAPOR
      KODE = 2  NTRIAL =   3  T = 105.3556  P = 6.000000E+06  V =  0.00000      Q =  0.00000    
      ITER =    16  T =  584.5066  P =  6.000000E+06  PHASES = VAPOR
      KODE = 2  NTRIAL =   3  T = 105.3556  P = 6.000000E+06  V =  0.00000      Q =  0.00000    
      ITER =    16  T =  584.5066  P =  6.000000E+06  PHASES = VAPOR
      KODE = 2  NTRIAL =   3  T = 105.3556  P = 6.000000E+06  V =  0.00000      Q =  0.00000    
      ITER =    16  T =  584.5066  P =  6.000000E+06  PHASES = VAPOR
      KODE = 2  NTRIAL =   3  T = 105.3556  P = 6.000000E+06  V =  0.00000      Q =  0.00000    
      ITER =    16  T =  584.5066  P =  6.000000E+06  PHASES = VAPOR
      KODE = 2  NTRIAL =   3  T = 105.3556  P = 6.000000E+06  V =  0.00000      Q =  0.00000    
      ITER =    16  T =  584.5066  P =  6.000000E+06  PHASES = VAPOR
      KODE = 2  NTRIAL =   3  T = 105.3556  P = 6.000000E+06  V =  0.00000      Q =  0.00000    
      ITER =    16  T =  584.5066  P =  6.000000E+06  PHASES = VAPOR
      KODE = 2  NTRIAL =   3  T = 105.3556  P = 6.000000E+06  V =  0.00000      Q =  0.00000    
      ITER =    16  T =  584.5066  P =  6.000000E+06  PHASES = VAPOR
      KODE = 2  NTRIAL =   3  T = 105.3556  P = 6.000000E+06  V =  0.00000      Q =  0.00000    
      ITER =    16  T =  584.5066  P =  6.000000E+06  PHASES = VAPOR
      KODE = 2  NTRIAL =   3  T = 105.3556  P = 6.000000E+06  V =  0.00000      Q =  0.00000    
      ITER =    16  T =  584.5066  P =  6.000000E+06  PHASES = VAPOR
      KODE = 2  NTRIAL =   3  T = 105.3556  P = 6.000000E+06  V =  0.00000      Q =  0.00000    
      ITER =    16  T =  584.5066  P =  6.000000E+06  PHASES = VAPOR
      KODE = 2  NTRIAL =   3  T = 105.3556  P = 6.000000E+06  V =  0.00000      Q =  0.00000    
      ITER =    16  T =  584.5066  P =  6.000000E+06  PHASES = VAPOR
      KODE = 2  NTRIAL =   3  T = 105.3556  P = 6.000000E+06  V =  0.00000      Q =  0.00000    
      ITER =    16  T =  584.5066  P =  6.000000E+06  PHASES = VAPOR
      KODE = 2  NTRIAL =   3  T = 105.3556  P = 6.000000E+06  V =  0.00000      Q =  0.00000    
      ITER =    16  T =  584.5066  P =  6.000000E+06  PHASES = VAPOR
      KODE = 2  NTRIAL =   3  T = 105.3556  P = 6.000000E+06  V =  0.00000      Q =  0.00000    
      ITER =    16  T =  584.5066  P =  6.000000E+06  PHASES = VAPOR
      KODE = 2  NTRIAL =   3  T = 105.3556  P = 6.000000E+06  V =  0.00000      Q =  0.00000    
      ITER =    16  T =  584.5066  P =  6.000000E+06  PHASES = VAPOR
      KODE = 2  NTRIAL =   3  T = 105.3556  P = 6.000000E+06  V =  0.00000      Q =  0.00000    
      ITER =    16  T =  584.5066  P =  6.000000E+06  PHASES = VAPOR
      KODE = 2  NTRIAL =   3  T = 105.3556  P = 6.000060E+06  V =  0.00000      Q =  0.00000    
      ITER =    16  T =  584.5066  P =  6.000000E+06  PHASES = VAPOR
      KODE = 2  NTRIAL =   3  T = 105.3556  P = 6.000060E+06  V =  0.00000      Q =  0.00000    
      ITER =    16  T =  584.5066  P =  6.000000E+06  PHASES = VAPOR
      KODE = 2  NTRIAL =   3  T = 105.3556  P = 6.000000E+06  V =  0.00000      Q =  0.00000    
      ITER =    16  T =  584.5097  P =  6.000000E+06  PHASES = VAPOR
      KODE = 2  NTRIAL =   3  T = 105.3556  P = 6.000000E+06  V =  0.00000      Q =  0.00000    
      ITER =    16  T =  584.5097  P =  6.000000E+06  PHASES = VAPOR
      KODE = 2  NTRIAL =   3  T = 105.3556  P = 6.000000E+06  V =  0.00000      Q =  0.00000    
      ITER =    16  T =  584.5066  P =  6.000000E+06  PHASES = VAPOR
      KODE = 2  NTRIAL =   3  T = 105.3556  P = 6.000000E+06  V =  0.00000      Q =  0.00000    
      ITER =    16  T =  584.5066  P =  6.000000E+06  PHASES = VAPOR
      KODE = 2  NTRIAL =   3  T = 105.3556  P = 6.000000E+06  V =  0.00000      Q =  0.00000    
      ITER =    16  T =  584.5066  P =  6.000000E+06  PHASES = VAPOR
      KODE = 2  NTRIAL =   3  T = 105.3556  P = 6.000000E+06  V =  0.00000      Q =  0.00000    
      ITER =    16  T =  584.5066  P =  6.000000E+06  PHASES = VAPOR
      KODE = 2  NTRIAL =   3  T = 105.3556  P = 6.000000E+06  V =  0.00000      Q =  0.00000    
      ITER =    16  T =  584.5066  P =  6.000000E+06  PHASES = VAPOR
      KODE = 2  NTRIAL =   3  T = 105.3556  P = 6.000000E+06  V =  0.00000      Q =  0.00000    
      ITER =    16  T =  584.5066  P =  6.000000E+06  PHASES = VAPOR
      KODE = 2  NTRIAL =   3  T = 105.3556  P = 6.000000E+06  V =  0.00000      Q =  0.00000    
      ITER =    16  T =  584.5066  P =  6.000000E+06  PHASES = VAPOR
      KODE = 2  NTRIAL =   3  T = 105.3556  P = 6.000000E+06  V =  0.00000      Q =  0.00000    
      ITER =    16  T =  584.5066  P =  6.000000E+06  PHASES = VAPOR
      KODE = 2  NTRIAL =   3  T = 105.3556  P = 6.000000E+06  V =  0.00000      Q =  0.00000    
      ITER =    16  T =  584.5066  P =  6.000000E+06  PHASES = VAPOR
      KODE = 2  NTRIAL =   3  T = 105.3556  P = 6.000000E+06  V =  0.00000      Q =  0.00000    
      ITER =    16  T =  584.5066  P =  6.000000E+06  PHASES = VAPOR
      KODE = 2  NTRIAL =   3  T = 105.3556  P = 6.000000E+06  V =  0.00000      Q =  0.00000    
      ITER =    16  T =  584.5066  P =  6.000000E+06  PHASES = VAPOR
      KODE = 2  NTRIAL =   3  T = 105.3556  P = 6.000000E+06  V =  0.00000      Q =  0.00000    
      ITER =    16  T =  584.5066  P =  6.000000E+06  PHASES = VAPOR
      KODE = 2  NTRIAL =   3  T = 105.3556  P = 6.000000E+06  V =  0.00000      Q =  0.00000    
      ITER =    16  T =  584.5066  P =  6.000000E+06  PHASES = VAPOR
      KODE = 2  NTRIAL =   3  T = 105.3556  P = 6.000000E+06  V =  0.00000      Q =  0.00000    
      ITER =    16  T =  584.5066  P =  6.000000E+06  PHASES = VAPOR
      KODE = 2  NTRIAL =   3  T = 105.3556  P = 6.000060E+06  V =  0.00000      Q =  0.00000    
      ITER =    16  T =  584.5066  P =  6.000000E+06  PHASES = VAPOR
      KODE = 2  NTRIAL =   3  T = 105.3556  P = 6.000060E+06  V =  0.00000      Q =  0.00000    
      ITER =    16  T =  584.5066  P =  6.000000E+06  PHASES = VAPOR
      KODE = 2  NTRIAL =   3  T = 105.3556  P = 6.000000E+06  V =  0.00000      Q =  0.00000    
      ITER =    16  T =  584.5097  P =  6.000000E+06  PHASES = VAPOR
      KODE = 2  NTRIAL =   3  T = 105.3556  P = 6.000000E+06  V =  0.00000      Q =  0.00000    
      ITER =    16  T =  584.5097  P =  6.000000E+06  PHASES = VAPOR
      KODE = 2  NTRIAL =   3  T = 105.3556  P = 6.000000E+06  V =  0.00000      Q =  0.00000    
      ITER =    16  T =  584.5066  P =  6.000000E+06  PHASES = VAPOR
      KODE = 2  NTRIAL =   3  T = 105.3556  P = 6.000000E+06  V =  0.00000      Q =  0.00000    
      ITER =    16  T =  584.5066  P =  6.000000E+06  PHASES = VAPOR
      KODE = 2  NTRIAL =   3  T = 105.3556  P = 6.000000E+06  V =  0.00000      Q =  0.00000    
      ITER =    16  T =  584.5066  P =  6.000000E+06  PHASES = VAPOR
      KODE = 2  NTRIAL =   3  T = 105.3556  P = 6.000000E+06  V =  0.00000      Q =  0.00000    
      ITER =    16  T =  584.5066  P =  6.000000E+06  PHASES = VAPOR
      KODE = 2  NTRIAL =   3  T = 105.3556  P = 6.000000E+06  V =  0.00000      Q =  0.00000    
      ITER =    16  T =  584.5066  P =  6.000000E+06  PHASES = VAPOR
      KODE = 2  NTRIAL =   3  T = 105.3556  P = 6.000000E+06  V =  0.00000      Q =  0.00000    
      ITER =    16  T =  584.5066  P =  6.000000E+06  PHASES = VAPOR
      KODE = 2  NTRIAL =   3  T = 105.3556  P = 6.000000E+06  V =  0.00000      Q =  0.00000    
      ITER =    16  T =  584.5066  P =  6.000000E+06  PHASES = VAPOR
      KODE = 2  NTRIAL =   3  T = 105.3556  P = 6.000000E+06  V =  0.00000      Q =  0.00000    
      ITER =    16  T =  584.5066  P =  6.000000E+06  PHASES = VAPOR
      KODE = 2  NTRIAL =   3  T = 105.3556  P = 6.000000E+06  V =  0.00000      Q =  0.00000    
      ITER =    16  T =  584.5066  P =  6.000000E+06  PHASES = VAPOR
      KODE = 2  NTRIAL =   3  T = 105.3556  P = 6.000000E+06  V =  0.00000      Q =  0.00000    
      ITER =    16  T =  584.5066  P =  6.000000E+06  PHASES = VAPOR
      KODE = 2  NTRIAL =   3  T = 105.3556  P = 6.000000E+06  V =  0.00000      Q =  0.00000    
      ITER =    16  T =  584.5066  P =  6.000000E+06  PHASES = VAPOR
      KODE = 2  NTRIAL =   3  T = 105.3556  P = 6.000000E+06  V =  0.00000      Q =  0.00000    
      ITER =    16  T =  584.5066  P =  6.000000E+06  PHASES = VAPOR
      KODE = 2  NTRIAL =   3  T = 105.3556  P = 6.000000E+06  V =  0.00000      Q =  0.00000    
      ITER =    16  T =  584.5066  P =  6.000000E+06  PHASES = VAPOR
      KODE = 2  NTRIAL =   3  T = 105.3556  P = 6.000000E+06  V =  0.00000      Q =  0.00000    
      ITER =    16  T =  584.5066  P =  6.000000E+06  PHASES = VAPOR
      KODE = 2  NTRIAL =   3  T = 105.3556  P = 6.000000E+06  V =  0.00000      Q =  0.00000    
      ITER =    16  T =  584.5066  P =  6.000000E+06  PHASES = VAPOR
      KODE = 2  NTRIAL =   3  T = 105.3556  P = 6.000000E+06  V =  0.00000      Q =  0.00000    
      ITER =    16  T =  584.5066  P =  6.000000E+06  PHASES = VAPOR
      KODE = 2  NTRIAL =   3  T = 105.3556  P = 6.000000E+06  V =  0.00000      Q =  0.00000    
      ITER =    16  T =  584.5066  P =  6.000000E+06  PHASES = VAPOR
      KODE = 2  NTRIAL =   3  T = 105.3556  P = 6.000000E+06  V =  0.00000      Q =  0.00000    
      ITER =    16  T =  584.5066  P =  6.000000E+06  PHASES = VAPOR
      KODE = 2  NTRIAL =   3  T = 105.3556  P = 6.000000E+06  V =  0.00000      Q =  0.00000    
      ITER =    16  T =  584.5066  P =  6.000000E+06  PHASES = VAPOR
      KODE = 2  NTRIAL =   3  T = 105.3556  P = 6.000000E+06  V =  0.00000      Q =  0.00000    
      ITER =    16  T =  584.5066  P =  6.000000E+06  PHASES = VAPOR
      KODE = 2  NTRIAL =   3  T = 105.3556  P = 6.000000E+06  V =  0.00000      Q =  0.00000    
      ITER =    16  T =  584.5066  P =  6.000000E+06  PHASES = VAPOR
      KODE = 2  NTRIAL =   3  T = 105.3556  P = 6.000000E+06  V =  0.00000      Q =  0.00000    
      ITER =    16  T =  584.5066  P =  6.000000E+06  PHASES = VAPOR
      KODE = 2  NTRIAL =   3  T = 105.3556  P = 6.000000E+06  V =  0.00000      Q =  0.00000    
      ITER =    16  T =  584.5066  P =  6.000000E+06  PHASES = VAPOR
      KODE = 2  NTRIAL =   3  T = 105.3556  P = 6.000000E+06  V =  0.00000      Q =  0.00000    
      ITER =    16  T =  584.5066  P =  6.000000E+06  PHASES = VAPOR
      KODE = 2  NTRIAL =   3  T = 105.3556  P = 6.000060E+06  V =  0.00000      Q =  0.00000    
      ITER =    16  T =  584.5066  P =  6.000000E+06  PHASES = VAPOR
      KODE = 2  NTRIAL =   3  T = 105.3556  P = 6.000060E+06  V =  0.00000      Q =  0.00000    
      ITER =    16  T =  584.5066  P =  6.000000E+06  PHASES = VAPOR
      KODE = 2  NTRIAL =   3  T = 105.3556  P = 6.000000E+06  V =  0.00000      Q =  0.00000    
      ITER =    16  T =  584.5097  P =  6.000000E+06  PHASES = VAPOR
      KODE = 2  NTRIAL =   3  T = 105.3556  P = 6.000000E+06  V =  0.00000      Q =  0.00000    
      ITER =    16  T =  584.5097  P =  6.000000E+06  PHASES = VAPOR
      KODE = 2  NTRIAL =   3  T = 105.3556  P = 6.000000E+06  V =  0.00000      Q =  0.00000    
      ITER =    16  T =  584.5066  P =  6.000000E+06  PHASES = VAPOR
      KODE = 2  NTRIAL =   3  T = 105.3556  P = 6.000000E+06  V =  0.00000      Q =  0.00000    
      ITER =    16  T =  584.5066  P =  6.000000E+06  PHASES = VAPOR
      KODE = 2  NTRIAL =   3  T = 105.3556  P = 6.000000E+06  V =  0.00000      Q =  0.00000    
      ITER =    16  T =  584.5066  P =  6.000000E+06  PHASES = VAPOR
      KODE = 2  NTRIAL =   3  T = 105.3556  P = 6.000000E+06  V =  0.00000      Q =  0.00000    
      ITER =    16  T =  584.5066  P =  6.000000E+06  PHASES = VAPOR
      KODE = 2  NTRIAL =   3  T = 105.3556  P = 6.000000E+06  V =  0.00000      Q =  0.00000    
      ITER =    16  T =  584.5066  P =  6.000000E+06  PHASES = VAPOR
      KODE = 2  NTRIAL =   3  T = 105.3556  P = 6.000000E+06  V =  0.00000      Q =  0.00000    
      ITER =    16  T =  584.5066  P =  6.000000E+06  PHASES = VAPOR
      KODE = 2  NTRIAL =   3  T = 105.3556  P = 6.000000E+06  V =  0.00000      Q =  0.00000    
      ITER =    16  T =  584.5066  P =  6.000000E+06  PHASES = VAPOR
      KODE = 2  NTRIAL =   3  T = 105.3556  P = 6.000000E+06  V =  0.00000      Q =  0.00000    
      ITER =    16  T =  584.5066  P =  6.000000E+06  PHASES = VAPOR
      KODE = 2  NTRIAL =   3  T = 105.3556  P = 6.000000E+06  V =  0.00000      Q =  0.00000    
      ITER =    16  T =  584.5066  P =  6.000000E+06  PHASES = VAPOR
      KODE = 2  NTRIAL =   3  T = 105.3556  P = 6.000000E+06  V =  0.00000      Q =  0.00000    
      ITER =    16  T =  584.5066  P =  6.000000E+06  PHASES = VAPOR
      KODE = 2  NTRIAL =   3  T = 105.3556  P = 6.000000E+06  V =  0.00000      Q =  0.00000    
      ITER =    16  T =  584.5066  P =  6.000000E+06  PHASES = VAPOR
      KODE = 2  NTRIAL =   3  T = 105.3556  P = 6.000000E+06  V =  0.00000      Q =  0.00000    
      ITER =    16  T =  584.5066  P =  6.000000E+06  PHASES = VAPOR
      KODE = 2  NTRIAL =   3  T = 105.3556  P = 6.000000E+06  V =  0.00000      Q =  0.00000    
      ITER =    16  T =  584.5066  P =  6.000000E+06  PHASES = VAPOR
      KODE = 2  NTRIAL =   3  T = 105.3556  P = 6.000000E+06  V =  0.00000      Q =  0.00000    
      ITER =    16  T =  584.5066  P =  6.000000E+06  PHASES = VAPOR
      KODE = 2  NTRIAL =   3  T = 105.3556  P = 6.000060E+06  V =  0.00000      Q =  0.00000    
      ITER =    16  T =  584.5066  P =  6.000000E+06  PHASES = VAPOR
      KODE = 2  NTRIAL =   3  T = 105.3556  P = 6.000060E+06  V =  0.00000      Q =  0.00000    
      ITER =    16  T =  584.5066  P =  6.000000E+06  PHASES = VAPOR
      KODE = 2  NTRIAL =   3  T = 105.3556  P = 6.000000E+06  V =  0.00000      Q =  0.00000    
      ITER =    16  T =  584.5097  P =  6.000000E+06  PHASES = VAPOR
      KODE = 2  NTRIAL =   3  T = 105.3556  P = 6.000000E+06  V =  0.00000      Q =  0.00000    
      ITER =    16  T =  584.5097  P =  6.000000E+06  PHASES = VAPOR
      KODE = 2  NTRIAL =   3  T = 105.3556  P = 6.000000E+06  V =  0.00000      Q =  0.00000    
      ITER =    16  T =  584.5066  P =  6.000000E+06  PHASES = VAPOR
      KODE = 2  NTRIAL =   3  T = 105.3556  P = 6.000000E+06  V =  0.00000      Q =  0.00000    
      ITER =    16  T =  584.5066  P =  6.000000E+06  PHASES = VAPOR
      KODE = 2  NTRIAL =   3  T = 105.3556  P = 6.000000E+06  V =  0.00000      Q =  0.00000    
      ITER =    16  T =  584.5066  P =  6.000000E+06  PHASES = VAPOR
      KODE = 2  NTRIAL =   3  T = 105.3556  P = 6.000000E+06  V =  0.00000      Q =  0.00000    
      ITER =    16  T =  584.5066  P =  6.000000E+06  PHASES = VAPOR
      KODE = 2  NTRIAL =   3  T = 105.3556  P = 6.000000E+06  V =  0.00000      Q =  0.00000    
      ITER =    16  T =  584.5066  P =  6.000000E+06  PHASES = VAPOR
      KODE = 2  NTRIAL =   3  T = 105.3556  P = 6.000000E+06  V =  0.00000      Q =  0.00000    
      ITER =    16  T =  584.5066  P =  6.000000E+06  PHASES = VAPOR
      KODE = 2  NTRIAL =   3  T = 105.3556  P = 6.000000E+06  V =  0.00000      Q =  0.00000    
      ITER =    16  T =  584.5066  P =  6.000000E+06  PHASES = VAPOR
      KODE = 2  NTRIAL =   3  T = 105.3556  P = 6.000000E+06  V =  0.00000      Q =  0.00000    
      ITER =    16  T =  584.5066  P =  6.000000E+06  PHASES = VAPOR
      KODE = 2  NTRIAL =   3  T = 105.3556  P = 6.000000E+06  V =  0.00000      Q =  0.00000    
      ITER =    16  T =  584.5066  P =  6.000000E+06  PHASES = VAPOR
      KODE = 2  NTRIAL =   3  T = 105.3556  P = 6.000000E+06  V =  0.00000      Q =  0.00000    
      ITER =    16  T =  584.5066  P =  6.000000E+06  PHASES = VAPOR
      KODE = 2  NTRIAL =   3  T = 105.3556  P = 6.000000E+06  V =  0.00000      Q =  0.00000    
      ITER =    16  T =  584.5066  P =  6.000000E+06  PHASES = VAPOR
      KODE = 2  NTRIAL =   3  T = 105.3556  P = 6.000000E+06  V =  0.00000      Q =  0.00000    
      ITER =    16  T =  584.5066  P =  6.000000E+06  PHASES = VAPOR
      KODE = 2  NTRIAL =   3  T = 105.3556  P = 6.000000E+06  V =  0.00000      Q =  0.00000    
      ITER =    16  T =  584.5066  P =  6.000000E+06  PHASES = VAPOR
      KODE = 2  NTRIAL =   3  T = 105.3556  P = 6.000000E+06  V =  0.00000      Q =  0.00000    
      ITER =    16  T =  584.5066  P =  6.000000E+06  PHASES = VAPOR
      KODE = 2  NTRIAL =   3  T = 105.3556  P = 6.000000E+06  V =  0.00000      Q =  0.00000    
      ITER =    16  T =  584.5066  P =  6.000000E+06  PHASES = VAPOR
      KODE = 2  NTRIAL =   3  T = 105.3556  P = 6.000000E+06  V =  0.00000      Q =  0.00000    
      ITER =    16  T =  584.5066  P =  6.000000E+06  PHASES = VAPOR
      KODE = 2  NTRIAL =   3  T = 105.3556  P = 6.000000E+06  V =  0.00000      Q =  0.00000    
      ITER =    16  T =  584.5066  P =  6.000000E+06  PHASES = VAPOR
      KODE = 2  NTRIAL =   3  T = 105.3556  P = 6.000000E+06  V =  0.00000      Q =  0.00000    
      ITER =    16  T =  584.5066  P =  6.000000E+06  PHASES = VAPOR
      KODE = 2  NTRIAL =   3  T = 105.3556  P = 6.000000E+06  V =  0.00000      Q =  0.00000    
      ITER =    16  T =  584.5066  P =  6.000000E+06  PHASES = VAPOR
      KODE = 2  NTRIAL =   3  T = 105.3556  P = 6.000000E+06  V =  0.00000      Q =  0.00000    
      ITER =    16  T =  584.5066  P =  6.000000E+06  PHASES = VAPOR
      KODE = 2  NTRIAL =   3  T = 105.3556  P = 6.000000E+06  V =  0.00000      Q =  0.00000    
      ITER =    16  T =  584.5066  P =  6.000000E+06  PHASES = VAPOR
      KODE = 2  NTRIAL =   3  T = 105.3556  P = 6.000000E+06  V =  0.00000      Q =  0.00000    
      ITER =    16  T =  584.5066  P =  6.000000E+06  PHASES = VAPOR
      KODE = 2  NTRIAL =   3  T = 105.3556  P = 6.000000E+06  V =  0.00000      Q =  0.00000    
      ITER =    16  T =  584.5066  P =  6.000000E+06  PHASES = VAPOR
      KODE = 2  NTRIAL =   3  T = 105.3556  P = 6.000000E+06  V =  0.00000      Q =  0.00000    
      ITER =    16  T =  584.5066  P =  6.000000E+06  PHASES = VAPOR
      KODE = 2  NTRIAL =   3  T = 105.3556  P = 6.000000E+06  V =  0.00000      Q =  0.00000    
      ITER =    16  T =  584.5066  P =  6.000000E+06  PHASES = VAPOR
      KODE = 2  NTRIAL =   3  T = 105.3556  P = 6.000000E+06  V =  0.00000      Q =  0.00000    
      ITER =    16  T =  584.5066  P =  6.000000E+06  PHASES = VAPOR
      KODE = 2  NTRIAL =   3  T = 105.3556  P = 6.000000E+06  V =  0.00000      Q =  0.00000    
      ITER =    16  T =  584.5066  P =  6.000000E+06  PHASES = VAPOR
      KODE = 2  NTRIAL =   3  T = 105.3556  P = 6.000000E+06  V =  0.00000      Q =  0.00000    
      ITER =    16  T =  584.5066  P =  6.000000E+06  PHASES = VAPOR
      KODE = 2  NTRIAL =   3  T = 105.3556  P = 6.000000E+06  V =  0.00000      Q =  0.00000    
      ITER =    16  T =  584.5066  P =  6.000000E+06  PHASES = VAPOR
      KODE = 2  NTRIAL =   3  T = 105.3556  P = 6.000000E+06  V =  0.00000      Q =  0.00000    
      ITER =    16  T =  584.5066  P =  6.000000E+06  PHASES = VAPOR
      KODE = 2  NTRIAL =   3  T = 105.3556  P = 6.000000E+06  V =  0.00000      Q =  0.00000    
      ITER =    16  T =  584.5066  P =  6.000000E+06  PHASES = VAPOR
      KODE = 2  NTRIAL =   3  T = 105.3556  P = 6.000000E+06  V =  0.00000      Q =  0.00000    
      ITER =    16  T =  584.5066  P =  6.000000E+06  PHASES = VAPOR
      KODE = 2  NTRIAL =   3  T = 105.3556  P = 6.000000E+06  V =  0.00000      Q =  0.00000    
      ITER =    16  T =  584.5066  P =  6.000000E+06  PHASES = VAPOR
      KODE = 2  NTRIAL =   3  T = 105.3556  P = 6.000000E+06  V =  0.00000      Q =  0.00000    
      ITER =    16  T =  584.5066  P =  6.000000E+06  PHASES = VAPOR
      KODE = 2  NTRIAL =   3  T = 105.3556  P = 6.000000E+06  V =  0.00000      Q =  0.00000    
      ITER =    16  T =  584.5066  P =  6.000000E+06  PHASES = VAPOR
      KODE = 2  NTRIAL =   3  T = 105.3556  P = 6.000000E+06  V =  0.00000      Q =  0.00000    
      ITER =    16  T =  584.5066  P =  6.000000E+06  PHASES = VAPOR
      KODE = 2  NTRIAL =   3  T = 105.3556  P = 6.000000E+06  V =  0.00000      Q =  0.00000    
      ITER =    16  T =  584.5066  P =  6.000000E+06  PHASES = VAPOR
      KODE = 2  NTRIAL =   3  T = 105.3556  P = 6.000000E+06  V =  0.00000      Q =  0.00000    
      ITER =    16  T =  584.5066  P =  6.000000E+06  PHASES = VAPOR
      KODE = 2  NTRIAL =   3  T = 105.3556  P = 6.000000E+06  V =  0.00000      Q =  0.00000    
      ITER =    16  T =  584.5066  P =  6.000000E+06  PHASES = VAPOR
      KODE = 2  NTRIAL =   3  T = 105.3556  P = 6.000000E+06  V =  0.00000      Q =  0.00000    
      ITER =    16  T =  584.5066  P =  6.000000E+06  PHASES = VAPOR
      KODE = 2  NTRIAL =   3  T = 105.3556  P = 6.000000E+06  V =  0.00000      Q =  0.00000    
      ITER =    16  T =  584.5066  P =  6.000000E+06  PHASES = VAPOR
      KODE = 2  NTRIAL =   3  T = 105.3556  P = 6.000000E+06  V =  0.00000      Q =  0.00000    
      ITER =    16  T =  584.5066  P =  6.000000E+06  PHASES = VAPOR
      KODE = 2  NTRIAL =   3  T = 105.3556  P = 6.000000E+06  V =  0.00000      Q =  0.00000    
      ITER =    16  T =  584.5066  P =  6.000000E+06  PHASES = VAPOR
      KODE = 2  NTRIAL =   3  T = 105.3556  P = 6.000000E+06  V =  0.00000      Q =  0.00000    
      ITER =    16  T =  584.5066  P =  6.000000E+06  PHASES = VAPOR
      KODE = 2  NTRIAL =   3  T = 105.3556  P = 6.000000E+06  V =  0.00000      Q =  0.00000    
      ITER =    16  T =  584.5066  P =  6.000000E+06  PHASES = VAPOR
      KODE = 2  NTRIAL =   3  T = 105.3556  P = 6.000000E+06  V =  0.00000      Q =  0.00000    
      ITER =    16  T =  584.5066  P =  6.000000E+06  PHASES = VAPOR
      KODE = 2  NTRIAL =   3  T = 105.3556  P = 6.000000E+06  V =  0.00000      Q =  0.00000    
      ITER =    16  T =  584.5066  P =  6.000000E+06  PHASES = VAPOR
      KODE = 2  NTRIAL =   3  T = 105.3556  P = 6.000000E+06  V =  0.00000      Q =  0.00000    
      ITER =    16  T =  584.5066  P =  6.000000E+06  PHASES = VAPOR
      KODE = 2  NTRIAL =   3  T = 105.3556  P = 6.000000E+06  V =  0.00000      Q =  0.00000    
      ITER =    16  T =  584.5066  P =  6.000000E+06  PHASES = VAPOR
      KODE = 2  NTRIAL =   3  T = 105.3556  P = 6.000000E+06  V =  0.00000      Q =  0.00000    
      ITER =    16  T =  584.5066  P =  6.000000E+06  PHASES = VAPOR
      KODE = 2  NTRIAL =   3  T = 105.3556  P = 6.000000E+06  V =  0.00000      Q =  0.00000    
      ITER =    16  T =  584.5066  P =  6.000000E+06  PHASES = VAPOR
      KODE = 2  NTRIAL =   3  T = 105.3556  P = 6.000000E+06  V =  0.00000      Q =  0.00000    
      ITER =    16  T =  584.5066  P =  6.000000E+06  PHASES = VAPOR
      KODE = 2  NTRIAL =   3  T = 105.3556  P = 6.000000E+06  V =  0.00000      Q =  0.00000    
      ITER =    16  T =  584.5066  P =  6.000000E+06  PHASES = VAPOR
      KODE = 2  NTRIAL =   3  T = 105.3556  P = 6.000000E+06  V =  0.00000      Q =  0.00000    
      ITER =    16  T =  584.5066  P =  6.000000E+06  PHASES = VAPOR
      KODE = 2  NTRIAL =   3  T = 105.3556  P = 6.000000E+06  V =  0.00000      Q =  0.00000    
      ITER =    16  T =  584.5066  P =  6.000000E+06  PHASES = VAPOR
      KODE = 2  NTRIAL =   3  T = 105.3556  P = 6.000000E+06  V =  0.00000      Q =  0.00000    
      ITER =    16  T =  584.5066  P =  6.000000E+06  PHASES = VAPOR
      KODE = 2  NTRIAL =   3  T = 105.3556  P = 6.000000E+06  V =  0.00000      Q =  0.00000    
      ITER =    16  T =  584.5066  P =  6.000000E+06  PHASES = VAPOR
      KODE = 2  NTRIAL =   3  T = 105.3556  P = 6.000000E+06  V =  0.00000      Q =  0.00000    
      ITER =    16  T =  584.5066  P =  6.000000E+06  PHASES = VAPOR
      KODE = 2  NTRIAL =   3  T = 105.3556  P = 6.000000E+06  V =  0.00000      Q =  0.00000    
      ITER =    16  T =  584.5066  P =  6.000000E+06  PHASES = VAPOR
      KODE = 2  NTRIAL =   3  T = 105.3556  P = 6.000000E+06  V =  0.00000      Q =  0.00000    
      ITER =    16  T =  584.5066  P =  6.000000E+06  PHASES = VAPOR
      KODE = 2  NTRIAL =   3  T = 105.3556  P = 6.000000E+06  V =  0.00000      Q =  0.00000    
      ITER =    16  T =  584.5066  P =  6.000000E+06  PHASES = VAPOR
      KODE = 2  NTRIAL =   3  T = 105.3556  P = 6.000000E+06  V =  0.00000      Q =  0.00000    
      ITER =    16  T =  584.5066  P =  6.000000E+06  PHASES = VAPOR
      KODE = 2  NTRIAL =   3  T = 105.3556  P = 6.000000E+06  V =  0.00000      Q =  0.00000    
      ITER =    16  T =  584.5066  P =  6.000000E+06  PHASES = VAPOR
      KODE = 2  NTRIAL =   3  T = 105.3556  P = 6.000000E+06  V =  0.00000      Q =  0.00000    
      ITER =    16  T =  584.5066  P =  6.000000E+06  PHASES = VAPOR
      KODE = 2  NTRIAL =   3  T = 105.3556  P = 6.000000E+06  V =  0.00000      Q =  0.00000    
      ITER =    16  T =  584.5066  P =  6.000000E+06  PHASES = VAPOR
      KODE = 2  NTRIAL =   3  T = 105.3556  P = 6.000000E+06  V =  0.00000      Q =  0.00000    
      ITER =    16  T =  584.5066  P =  6.000000E+06  PHASES = VAPOR
      KODE = 2  NTRIAL =   3  T = 105.3556  P = 6.000000E+06  V =  0.00000      Q =  0.00000    
      ITER =    16  T =  584.5066  P =  6.000000E+06  PHASES = VAPOR
      KODE = 2  NTRIAL =   3  T = 105.3556  P = 6.000000E+06  V =  0.00000      Q =  0.00000    
      ITER =    16  T =  584.5066  P =  6.000000E+06  PHASES = VAPOR
      KODE = 2  NTRIAL =   3  T = 105.3556  P = 6.000000E+06  V =  0.00000      Q =  0.00000    
      ITER =    16  T =  584.5066  P =  6.000000E+06  PHASES = VAPOR
      KODE = 2  NTRIAL =   3  T = 105.3556  P = 6.000000E+06  V =  0.00000      Q =  0.00000    
      ITER =    16  T =  584.5066  P =  6.000000E+06  PHASES = VAPOR
      KODE = 2  NTRIAL =   3  T = 105.3556  P = 6.000000E+06  V =  0.00000      Q =  0.00000    
      ITER =    16  T =  584.5066  P =  6.000000E+06  PHASES = VAPOR
      KODE = 2  NTRIAL =   3  T = 105.3556  P = 6.000000E+06  V =  0.00000      Q =  0.00000    
      ITER =    16  T =  584.5066  P =  6.000000E+06  PHASES = VAPOR
      KODE = 2  NTRIAL =   3  T = 105.3556  P = 6.000000E+06  V =  0.00000      Q =  0.00000    
      ITER =    16  T =  584.5066  P =  6.000000E+06  PHASES = VAPOR
      KODE = 2  NTRIAL =   3  T = 105.3556  P = 6.000000E+06  V =  0.00000      Q =  0.00000    
      ITER =    16  T =  584.5066  P =  6.000000E+06  PHASES = VAPOR
      KODE = 2  NTRIAL =   3  T = 105.3556  P = 6.000000E+06  V =  0.00000      Q =  0.00000    
      ITER =    16  T =  584.5066  P =  6.000000E+06  PHASES = VAPOR
      KODE = 2  NTRIAL =   3  T = 105.3556  P = 6.000000E+06  V =  0.00000      Q =  0.00000    
      ITER =    16  T =  584.5066  P =  6.000000E+06  PHASES = VAPOR
      KODE = 2  NTRIAL =   3  T = 105.3556  P = 6.000000E+06  V =  0.00000      Q =  0.00000    
      ITER =    16  T =  584.5066  P =  6.000000E+06  PHASES = VAPOR
      KODE = 2  NTRIAL =   3  T = 105.3556  P = 6.000000E+06  V =  0.00000      Q =  0.00000    
      ITER =    16  T =  584.5066  P =  6.000000E+06  PHASES = VAPOR
      KODE = 2  NTRIAL =   3  T = 105.3556  P = 6.000000E+06  V =  0.00000      Q =  0.00000    
      ITER =    16  T =  584.5066  P =  6.000000E+06  PHASES = VAPOR
      KODE = 2  NTRIAL =   3  T = 105.3556  P = 6.000000E+06  V =  0.00000      Q =  0.00000    
      ITER =    16  T =  584.5066  P =  6.000000E+06  PHASES = VAPOR
      KODE = 2  NTRIAL =   3  T = 105.3556  P = 6.000000E+06  V =  0.00000      Q =  0.00000    
      ITER =    16  T =  584.5066  P =  6.000000E+06  PHASES = VAPOR
[...]
      ITER =    16  T =  584.5066  P =  6.000000E+06  PHASES = VAPOR
      KODE = 2  NTRIAL =   3  T = 105.3556  P = 6.000000E+06  V =  0.00000      Q =  0.00000    
      ITER =    16  T =  584.5066  P =  6.000000E+06  PHASES = VAPOR
      KODE = 2  NTRIAL =   3  T = 105.3556  P = 6.000000E+06  V =  0.00000      Q =  0.00000    
      ITER =    16  T =  584.5066  P =  6.000000E+06  PHASES = VAPOR
      KODE = 2  NTRIAL =   3  T = 105.3556  P = 6.000000E+06  V =  0.00000      Q =  0.00000    
      ITER =    16  T =  584.5066  P =  6.000000E+06  PHASES = VAPOR
      KODE = 2  NTRIAL =   3  T = 105.3556  P = 6.000000E+06  V =  0.00000      Q =  0.00000    
      ITER =    16  T =  584.5066  P =  6.000000E+06  PHASES = VAPOR
      KODE = 2  NTRIAL =   3  T = 105.3556  P = 6.000000E+06  V =  0.00000      Q =  0.00000    
      ITER =    16  T =  584.5066  P =  6.000000E+06  PHASES = VAPOR
      KODE = 2  NTRIAL =   3  T = 105.3556  P = 6.000000E+06  V =  0.00000      Q =  0.00000    
      ITER =    16  T =  584.5066  P =  6.000000E+06  PHASES = VAPOR
      KODE = 2  NTRIAL =   3  T = 105.3556  P = 6.000000E+06  V =  0.00000      Q =  0.00000    
      ITER =    16  T =  584.5066  P =  6.000000E+06  PHASES = VAPOR
      KODE = 2  NTRIAL =   3  T = 105.3556  P = 6.000000E+06  V =  0.00000      Q =  0.00000    
      ITER =    16  T =  584.5066  P =  6.000000E+06  PHASES = VAPOR
      KODE = 2  NTRIAL =   3  T = 105.3556  P = 6.000000E+06  V =  0.00000      Q =  0.00000    
      ITER =    16  T =  584.5066  P =  6.000000E+06  PHASES = VAPOR
      KODE = 2  NTRIAL =   3  T = 105.3556  P = 6.000000E+06  V =  0.00000      Q =  0.00000    
      ITER =    16  T =  584.5066  P =  6.000000E+06  PHASES = VAPOR
      KODE = 2  NTRIAL =   3  T = 105.3556  P = 6.000000E+06  V =  0.00000      Q =  0.00000    
      ITER =    16  T =  584.5066  P =  6.000000E+06  PHASES = VAPOR
      KODE = 2  NTRIAL =   3  T = 105.3556  P = 6.000000E+06  V =  0.00000      Q =  0.00000    
      ITER =    16  T =  584.5066  P =  6.000000E+06  PHASES = VAPOR
      KODE = 2  NTRIAL =   3  T = 105.3556  P = 6.000000E+06  V =  0.00000      Q =  0.00000    
      ITER =    16  T =  584.5066  P =  6.000000E+06  PHASES = VAPOR
      KODE = 2  NTRIAL =   3  T = 105.3556  P = 6.000000E+06  V =  0.00000      Q =  0.00000    
      ITER =    16  T =  584.5066  P =  6.000000E+06  PHASES = VAPOR
      KODE = 2  NTRIAL =   3  T = 105.3556  P = 6.000000E+06  V =  0.00000      Q =  0.00000    
      ITER =    16  T =  584.5066  P =  6.000000E+06  PHASES = VAPOR
      KODE = 2  NTRIAL =   3  T = 105.3556  P = 6.000000E+06  V =  0.00000      Q =  0.00000    
      ITER =    16  T =  584.5066  P =  6.000000E+06  PHASES = VAPOR
      KODE = 2  NTRIAL =   3  T = 105.3556  P = 6.000000E+06  V =  0.00000      Q =  0.00000    
      ITER =    16  T =  584.5066  P =  6.000000E+06  PHASES = VAPOR
      KODE = 2  NTRIAL =   3  T = 105.3556  P = 6.000000E+06  V =  0.00000      Q =  0.00000    
      ITER =    16  T =  584.5066  P =  6.000000E+06  PHASES = VAPOR
      KODE = 2  NTRIAL =   3  T = 105.3556  P = 6.000000E+06  V =  0.00000      Q =  0.00000    
      ITER =    16  T =  584.5066  P =  6.000000E+06  PHASES = VAPOR
      KODE = 2  NTRIAL =   3  T = 105.3556  P = 6.000000E+06  V =  0.00000      Q =  0.00000    
      ITER =    16  T =  584.5066  P =  6.000000E+06  PHASES = VAPOR
      KODE = 2  NTRIAL =   3  T = 105.3556  P = 6.000000E+06  V =  0.00000      Q =  0.00000    
      ITER =    16  T =  584.5066  P =  6.000000E+06  PHASES = VAPOR
      KODE = 2  NTRIAL =   3  T = 105.3556  P = 6.000000E+06  V =  0.00000      Q =  0.00000    
      ITER =    16  T =  584.5066  P =  6.000000E+06  PHASES = VAPOR
      KODE = 2  NTRIAL =   3  T = 105.3556  P = 6.000000E+06  V =  0.00000      Q =  0.00000    
      ITER =    16  T =  584.5066  P =  6.000000E+06  PHASES = VAPOR
      KODE = 2  NTRIAL =   3  T = 105.3556  P = 6.000000E+06  V =  0.00000      Q =  0.00000    
      ITER =    16  T =  584.5066  P =  6.000000E+06  PHASES = VAPOR
      KODE = 2  NTRIAL =   3  T = 105.3556  P = 6.000000E+06  V =  0.00000      Q =  0.00000    
      ITER =    16  T =  584.5066  P =  6.000000E+06  PHASES = VAPOR
      KODE = 2  NTRIAL =   3  T = 105.3556  P = 6.000000E+06  V =  0.00000      Q =  0.00000    
      ITER =    16  T =  584.5066  P =  6.000000E+06  PHASES = VAPOR
      KODE = 2  NTRIAL =   3  T = 105.3556  P = 6.000000E+06  V =  0.00000      Q =  0.00000    
      ITER =    16  T =  584.5066  P =  6.000000E+06  PHASES = VAPOR
      KODE = 2  NTRIAL =   3  T = 105.3556  P = 6.000000E+06  V =  0.00000      Q =  0.00000    
      ITER =    16  T =  584.5066  P =  6.000000E+06  PHASES = VAPOR
      KODE = 2  NTRIAL =   3  T = 105.3556  P = 6.000000E+06  V =  0.00000      Q =  0.00000    
      ITER =    16  T =  584.5066  P =  6.000000E+06  PHASES = VAPOR
      KODE = 2  NTRIAL =   3  T = 105.3556  P = 6.000000E+06  V =  0.00000      Q =  0.00000    
      ITER =    16  T =  584.5066  P =  6.000000E+06  PHASES = VAPOR
      KODE = 2  NTRIAL =   3  T = 105.3556  P = 6.000000E+06  V =  0.00000      Q =  0.00000    
      ITER =    16  T =  584.5066  P =  6.000000E+06  PHASES = VAPOR
      KODE = 2  NTRIAL =   3  T = 105.3556  P = 6.000000E+06  V =  0.00000      Q =  0.00000    
      ITER =    16  T =  584.5066  P =  6.000000E+06  PHASES = VAPOR
      KODE = 2  NTRIAL =   3  T = 105.3556  P = 6.000000E+06  V =  0.00000      Q =  0.00000    
      ITER =    16  T =  584.5066  P =  6.000000E+06  PHASES = VAPOR
      KODE = 2  NTRIAL =   3  T = 105.3556  P = 6.000000E+06  V =  0.00000      Q =  0.00000    
      ITER =    16  T =  584.5066  P =  6.000000E+06  PHASES = VAPOR
      KODE = 2  NTRIAL =   3  T = 105.3556  P = 6.000000E+06  V =  0.00000      Q =  0.00000    
      ITER =    16  T =  584.5066  P =  6.000000E+06  PHASES = VAPOR
      KODE = 2  NTRIAL =   3  T = 105.3556  P = 6.000000E+06  V =  0.00000      Q =  0.00000    
      ITER =    16  T =  584.5066  P =  6.000000E+06  PHASES = VAPOR
      KODE = 2  NTRIAL =   3  T = 105.3556  P = 6.000000E+06  V =  0.00000      Q =  0.00000    
      ITER =    16  T =  584.5066  P =  6.000000E+06  PHASES = VAPOR
      KODE = 2  NTRIAL =   3  T = 105.3556  P = 6.000000E+06  V =  0.00000      Q =  0.00000    
      ITER =    16  T =  584.5066  P =  6.000000E+06  PHASES = VAPOR
      KODE = 2  NTRIAL =   3  T = 105.3556  P = 6.000000E+06  V =  0.00000      Q =  0.00000    
      ITER =    16  T =  584.5066  P =  6.000000E+06  PHASES = VAPOR
      KODE = 2  NTRIAL =   3  T = 105.3556  P = 6.000000E+06  V =  0.00000      Q =  0.00000    
      ITER =    16  T =  584.5066  P =  6.000000E+06  PHASES = VAPOR
      KODE = 2  NTRIAL =   3  T = 105.3556  P = 6.000000E+06  V =  0.00000      Q =  0.00000    
      ITER =    16  T =  584.5066  P =  6.000000E+06  PHASES = VAPOR
      KODE = 2  NTRIAL =   3  T = 105.3556  P = 6.000000E+06  V =  0.00000      Q =  0.00000    
      ITER =    16  T =  584.5066  P =  6.000000E+06  PHASES = VAPOR
      KODE = 2  NTRIAL =   3  T = 105.3556  P = 6.000000E+06  V =  0.00000      Q =  0.00000    
      ITER =    16  T =  584.5066  P =  6.000000E+06  PHASES = VAPOR
      KODE = 2  NTRIAL =   3  T = 105.3556  P = 6.000000E+06  V =  0.00000      Q =  0.00000    
      ITER =    16  T =  584.5066  P =  6.000000E+06  PHASES = VAPOR
      KODE = 2  NTRIAL =   3  T = 105.3556  P = 6.000000E+06  V =  0.00000      Q =  0.00000    
      ITER =    16  T =  584.5066  P =  6.000000E+06  PHASES = VAPOR
      KODE = 2  NTRIAL =   3  T = 105.3556  P = 6.000000E+06  V =  0.00000      Q =  0.00000    
      ITER =    16  T =  584.5066  P =  6.000000E+06  PHASES = VAPOR
      KODE = 2  NTRIAL =   3  T = 105.3556  P = 6.000000E+06  V =  0.00000      Q =  0.00000    
      ITER =    16  T =  584.5066  P =  6.000000E+06  PHASES = VAPOR
      KODE = 2  NTRIAL =   3  T = 105.3556  P = 6.000000E+06  V =  0.00000      Q =  0.00000    
      ITER =    16  T =  584.5066  P =  6.000000E+06  PHASES = VAPOR
      KODE = 2  NTRIAL =   3  T = 105.3556  P = 6.000000E+06  V =  0.00000      Q =  0.00000    
      ITER =    16  T =  584.5066  P =  6.000000E+06  PHASES = VAPOR
      KODE = 2  NTRIAL =   3  T = 105.3556  P = 6.000000E+06  V =  0.00000      Q =  0.00000    
      ITER =    16  T =  584.5066  P =  6.000000E+06  PHASES = VAPOR
      KODE = 2  NTRIAL =   3  T = 105.3556  P = 6.000000E+06  V =  0.00000      Q =  0.00000    
      ITER =    16  T =  584.5066  P =  6.000000E+06  PHASES = VAPOR
      KODE = 2  NTRIAL =   3  T = 105.3556  P = 6.000000E+06  V =  0.00000      Q =  0.00000    
      ITER =    16  T =  584.5066  P =  6.000000E+06  PHASES = VAPOR
      KODE = 2  NTRIAL =   3  T = 105.3556  P = 6.000000E+06  V =  0.00000      Q =  0.00000    
      ITER =    16  T =  584.5066  P =  6.000000E+06  PHASES = VAPOR
      KODE = 2  NTRIAL =   3  T = 105.3556  P = 6.000000E+06  V =  0.00000      Q =  0.00000    
      ITER =    16  T =  584.5066  P =  6.000000E+06  PHASES = VAPOR
      KODE = 2  NTRIAL =   3  T = 105.3556  P = 6.000000E+06  V =  0.00000      Q =  0.00000    
      ITER =    16  T =  584.5066  P =  6.000000E+06  PHASES = VAPOR
      KODE = 2  NTRIAL =   3  T = 105.3556  P = 6.000000E+06  V =  0.00000      Q =  0.00000    
      ITER =    16  T =  584.5066  P =  6.000000E+06  PHASES = VAPOR
      KODE = 2  NTRIAL =   3  T = 105.3556  P = 6.000000E+06  V =  0.00000      Q =  0.00000    
      ITER =    16  T =  584.5066  P =  6.000000E+06  PHASES = VAPOR
      KODE = 2  NTRIAL =   3  T = 105.3556  P = 6.000000E+06  V =  0.00000      Q =  0.00000    
      ITER =    16  T =  584.5066  P =  6.000000E+06  PHASES = VAPOR
      KODE = 2  NTRIAL =   3  T = 105.3556  P = 6.000000E+06  V =  0.00000      Q =  0.00000    
      ITER =    16  T =  584.5066  P =  6.000000E+06  PHASES = VAPOR
      KODE = 2  NTRIAL =   3  T = 105.3556  P = 6.000000E+06  V =  0.00000      Q =  0.00000    
      ITER =    16  T =  584.5066  P =  6.000000E+06  PHASES = VAPOR
      KODE = 2  NTRIAL =   3  T = 105.3556  P = 6.000000E+06  V =  0.00000      Q =  0.00000    
      ITER =    16  T =  584.5066  P =  6.000000E+06  PHASES = VAPOR
      KODE = 2  NTRIAL =   3  T = 105.3556  P = 6.000000E+06  V =  0.00000      Q =  0.00000    
      ITER =    16  T =  584.5066  P =  6.000000E+06  PHASES = VAPOR
      KODE = 2  NTRIAL =   3  T = 105.3556  P = 6.000000E+06  V =  0.00000      Q =  0.00000    
      ITER =    16  T =  584.5066  P =  6.000000E+06  PHASES = VAPOR
      KODE = 2  NTRIAL =   3  T = 105.3556  P = 6.000000E+06  V =  0.00000      Q =  0.00000    
      ITER =    16  T =  584.5066  P =  6.000000E+06  PHASES = VAPOR
      KODE = 2  NTRIAL =   3  T = 105.3556  P = 6.000000E+06  V =  0.00000      Q =  0.00000    
      ITER =    16  T =  584.5066  P =  6.000000E+06  PHASES = VAPOR
      KODE = 2  NTRIAL =   3  T = 105.3556  P = 6.000000E+06  V =  0.00000      Q =  0.00000    
      ITER =    16  T =  584.5066  P =  6.000000E+06  PHASES = VAPOR
      KODE = 2  NTRIAL =   3  T = 105.3556  P = 6.000000E+06  V =  0.00000      Q =  0.00000    
      ITER =    16  T =  584.5066  P =  6.000000E+06  PHASES = VAPOR
      KODE = 2  NTRIAL =   3  T = 105.3556  P = 6.000000E+06  V =  0.00000      Q =  0.00000    
      ITER =    16  T =  584.5066  P =  6.000000E+06  PHASES = VAPOR
      KODE = 2  NTRIAL =   3  T = 105.3556  P = 6.000000E+06  V =  0.00000      Q =  0.00000    
      ITER =    16  T =  584.5066  P =  6.000000E+06  PHASES = VAPOR
      KODE = 2  NTRIAL =   3  T = 105.3556  P = 6.000000E+06  V =  0.00000      Q =  0.00000    
      ITER =    16  T =  584.5066  P =  6.000000E+06  PHASES = VAPOR
      KODE = 2  NTRIAL =   3  T = 105.3556  P = 6.000000E+06  V =  0.00000      Q =  0.00000    
      ITER =    16  T =  584.5066  P =  6.000000E+06  PHASES = VAPOR
      KODE = 2  NTRIAL =   3  T = 105.3556  P = 6.000000E+06  V =  0.00000      Q =  0.00000    
      ITER =    16  T =  584.5066  P =  6.000000E+06  PHASES = VAPOR
      KODE = 2  NTRIAL =   3  T = 105.3556  P = 6.000000E+06  V =  0.00000      Q =  0.00000    
      ITER =    16  T =  584.5066  P =  6.000000E+06  PHASES = VAPOR
      KODE = 2  NTRIAL =   3  T = 105.3556  P = 6.000000E+06  V =  0.00000      Q =  0.00000    
      ITER =    16  T =  584.5066  P =  6.000000E+06  PHASES = VAPOR
      KODE = 2  NTRIAL =   3  T = 105.3556  P = 6.000000E+06  V =  0.00000      Q =  0.00000    
      ITER =    16  T =  584.5066  P =  6.000000E+06  PHASES = VAPOR
      KODE = 2  NTRIAL =   3  T = 105.3556  P = 6.000000E+06  V =  0.00000      Q =  0.00000    
      ITER =    16  T =  584.5066  P =  6.000000E+06  PHASES = VAPOR
      KODE = 2  NTRIAL =   3  T = 105.3556  P = 6.000000E+06  V =  0.00000      Q =  0.00000    
      ITER =    16  T =  584.5066  P =  6.000000E+06  PHASES = VAPOR
      KODE = 2  NTRIAL =   3  T = 105.3556  P = 6.000000E+06  V =  0.00000      Q =  0.00000    
      ITER =    16  T =  584.5066  P =  6.000000E+06  PHASES = VAPOR
      KODE = 2  NTRIAL =   3  T = 105.3556  P = 6.000000E+06  V =  0.00000      Q =  0.00000    
      ITER =    16  T =  584.5066  P =  6.000000E+06  PHASES = VAPOR
      KODE = 2  NTRIAL =   3  T = 105.3556  P = 6.000000E+06  V =  0.00000      Q =  0.00000    
      ITER =    16  T =  584.5066  P =  6.000000E+06  PHASES = VAPOR
      KODE = 2  NTRIAL =   3  T = 105.3556  P = 6.000000E+06  V =  0.00000      Q =  0.00000    
      ITER =    16  T =  584.5066  P =  6.000000E+06  PHASES = VAPOR
      KODE = 2  NTRIAL =   3  T = 105.3556  P = 6.000000E+06  V =  0.00000      Q =  0.00000    
      ITER =    16  T =  584.5066  P =  6.000000E+06  PHASES = VAPOR
      KODE = 2  NTRIAL =   3  T = 105.3556  P = 6.000000E+06  V =  0.00000      Q =  0.00000    
      ITER =    16  T =  584.5066  P =  6.000000E+06  PHASES = VAPOR
      KODE = 2  NTRIAL =   3  T = 105.3556  P = 6.000000E+06  V =  0.00000      Q =  0.00000    
      ITER =    16  T =  584.5066  P =  6.000000E+06  PHASES = VAPOR
      KODE = 2  NTRIAL =   3  T = 105.3556  P = 6.000000E+06  V =  0.00000      Q =  0.00000    
      ITER =    16  T =  584.5066  P =  6.000000E+06  PHASES = VAPOR
      KODE = 2  NTRIAL =   3  T = 105.3556  P = 6.000000E+06  V =  0.00000      Q =  0.00000    
      ITER =    16  T =  584.5066  P =  6.000000E+06  PHASES = VAPOR
      KODE = 2  NTRIAL =   3  T = 105.3556  P = 6.000000E+06  V =  0.00000      Q =  0.00000    
      ITER =    16  T =  584.5066  P =  6.000000E+06  PHASES = VAPOR
      KODE = 2  NTRIAL =   3  T = 105.3556  P = 6.000000E+06  V =  0.00000      Q =  0.00000    
      ITER =    16  T =  584.5066  P =  6.000000E+06  PHASES = VAPOR
      KODE = 2  NTRIAL =   3  T = 105.3556  P = 6.000000E+06  V =  0.00000      Q =  0.00000    
      ITER =    16  T =  584.5066  P =  6.000000E+06  PHASES = VAPOR
      KODE = 2  NTRIAL =   3  T = 105.3556  P = 6.000000E+06  V =  0.00000      Q =  0.00000    
      ITER =    16  T =  584.5066  P =  6.000000E+06  PHASES = VAPOR
      KODE = 2  NTRIAL =   3  T = 105.3556  P = 6.000000E+06  V =  0.00000      Q =  0.00000    
      ITER =    16  T =  584.5066  P =  6.000000E+06  PHASES = VAPOR
      KODE = 2  NTRIAL =   3  T = 105.3556  P = 6.000000E+06  V =  0.00000      Q =  0.00000    
      ITER =    16  T =  584.5066  P =  6.000000E+06  PHASES = VAPOR
      KODE = 2  NTRIAL =   3  T = 105.3556  P = 6.000000E+06  V =  0.00000      Q =  0.00000    
      ITER =    16  T =  584.5066  P =  6.000000E+06  PHASES = VAPOR
      KODE = 2  NTRIAL =   3  T = 105.3556  P = 6.000000E+06  V =  0.00000      Q =  0.00000    
      ITER =    16  T =  584.5066  P =  6.000000E+06  PHASES = VAPOR
      KODE = 2  NTRIAL =   3  T = 105.3556  P = 6.000000E+06  V =  0.00000      Q =  0.00000    
      ITER =    16  T =  584.5066  P =  6.000000E+06  PHASES = VAPOR
      KODE = 2  NTRIAL =   3  T = 105.3556  P = 6.000000E+06  V =  0.00000      Q =  0.00000    
      ITER =    16  T =  584.5066  P =  6.000000E+06  PHASES = VAPOR
      KODE = 2  NTRIAL =   3  T = 105.3556  P = 6.000000E+06  V =  0.00000      Q =  0.00000    
      ITER =    16  T =  584.5066  P =  6.000000E+06  PHASES = VAPOR
      KODE = 2  NTRIAL =   3  T = 105.3556  P = 6.000000E+06  V =  0.00000      Q =  0.00000    
      ITER =    16  T =  584.5066  P =  6.000000E+06  PHASES = VAPOR
      KODE = 2  NTRIAL =   3  T = 105.3556  P = 6.000000E+06  V =  0.00000      Q =  0.00000    
      ITER =    16  T =  584.5066  P =  6.000000E+06  PHASES = VAPOR
      KODE = 2  NTRIAL =   3  T = 105.3556  P = 6.000000E+06  V =  0.00000      Q =  0.00000    
      ITER =    16  T =  584.5066  P =  6.000000E+06  PHASES = VAPOR
      KODE = 2  NTRIAL =   3  T = 105.3556  P = 6.000000E+06  V =  0.00000      Q =  0.00000    
      ITER =    16  T =  584.5066  P =  6.000000E+06  PHASES = VAPOR
      KODE = 2  NTRIAL =   3  T = 105.3556  P = 6.000000E+06  V =  0.00000      Q =  0.00000    
      ITER =    16  T =  584.5066  P =  6.000000E+06  PHASES = VAPOR
      KODE = 5  NTRIAL =   4  T = 100.0000  P =  253765.      V =  0.00000      Q =  0.00000    
      KODE = 5  NTRIAL =   4  T = 100.0000  P =  253765.      V =  0.00000      Q =  0.00000    
      KODE = 5  NTRIAL =   4  T = 100.0000  P =  253765.      V =  0.00000      Q =  0.00000    
      KODE = 5  NTRIAL =   4  T = 298.1500  P =  7924.05      V =  0.00000      Q =  0.00000    
      KODE = 5  NTRIAL =   4  T = 298.1500  P =  7924.05      V =  0.00000      Q =  0.00000    
      KODE = 5  NTRIAL =   4  T = 298.1500  P =  7924.05      V =  0.00000      Q =  0.00000    
      KODE = 2  NTRIAL =   3  T = 105.3556  P = 6.000000E+06  V =  0.00000      Q =  0.00000    
      ITER =    16  T =  584.5066  P =  6.000000E+06  PHASES = VAPOR
      KODE = 2  NTRIAL =   3  T = 105.3556  P = 6.000000E+06  V =  0.00000      Q =  0.00000    
      ITER =    16  T =  584.5066  P =  6.000000E+06  PHASES = VAPOR
      KODE = 2  NTRIAL =   3  T = 105.3556  P = 6.000000E+06  V =  0.00000      Q =  0.00000    
      ITER =    16  T =  584.5066  P =  6.000000E+06  PHASES = VAPOR
      KODE = 2  NTRIAL =   3  T = 105.3556  P = 6.000000E+06  V =  0.00000      Q =  0.00000    
      ITER =    16  T =  584.5066  P =  6.000000E+06  PHASES = VAPOR
      KODE = 2  NTRIAL =   3  T = 105.3556  P = 6.000000E+06  V =  0.00000      Q =  0.00000    
      ITER =    16  T =  584.5066  P =  6.000000E+06  PHASES = VAPOR
      KODE = 2  NTRIAL =   3  T = 105.3556  P = 6.000000E+06  V =  0.00000      Q =  0.00000    
      ITER =    16  T =  584.5066  P =  6.000000E+06  PHASES = VAPOR
      KODE = 2  NTRIAL =   3  T = 105.3556  P = 6.000000E+06  V =  0.00000      Q =  0.00000    
      ITER =    16  T =  584.5066  P =  6.000000E+06  PHASES = VAPOR
      KODE = 2  NTRIAL =   3  T = 105.3556  P = 6.000000E+06  V =  0.00000      Q =  0.00000    
      ITER =    16  T =  584.5066  P =  6.000000E+06  PHASES = VAPOR
      KODE = 2  NTRIAL =   3  T = 105.3556  P = 6.000000E+06  V =  0.00000      Q =  0.00000    
      ITER =    16  T =  584.5066  P =  6.000000E+06  PHASES = VAPOR
      KODE = 2  NTRIAL =   3  T = 105.3556  P = 6.000000E+06  V =  0.00000      Q =  0.00000    
      ITER =    16  T =  584.5097  P =  6.000000E+06  PHASES = VAPOR
      KODE = 2  NTRIAL =   3  T = 105.3556  P = 6.000000E+06  V =  0.00000      Q =  0.00000    
      ITER =    16  T =  584.5066  P =  6.000000E+06  PHASES = VAPOR
      KODE = 2  NTRIAL =   3  T = 105.3556  P = 6.000000E+06  V =  0.00000      Q =  0.00000    
      ITER =    16  T =  584.5097  P =  6.000000E+06  PHASES = VAPOR
      KODE = 2  NTRIAL =   3  T = 105.3556  P = 6.000000E+06  V =  0.00000      Q =  0.00000    
      ITER =    16  T =  584.5097  P =  6.000000E+06  PHASES = VAPOR
      KODE = 2  NTRIAL =   3  T = 105.3556  P = 6.000000E+06  V =  0.00000      Q =  0.00000    
      ITER =    16  T =  584.5097  P =  6.000000E+06  PHASES = VAPOR
