
 + + + + + + + + + + + + + + + + + + + + + + + + + + + + + + + + + + + + + + + +
 + + + + + + + + + + + + + + + + + + + + + + + + + + + + + + + + + + + + + + + +
 + +                                                                         + +
 + +                      ASPEN PLUS CALCULATION HISTORY                     + +
 + +                                                                         + +
 + + + + + + + + + + + + + + + + + + + + + + + + + + + + + + + + + + + + + + + +
 + + + + + + + + + + + + + + + + + + + + + + + + + + + + + + + + + + + + + + + +

 ASPEN PLUS IS A TRADEMARK OF           HOTLINE:
 ASPEN TECHNOLOGY, INC.                 U.S.A. 888/996-7100
 781/221-6400                           EUROPE (44) 1189-226555

 PLATFORM: WIN-X64                                       OCTOBER 12, 2024    
 VERSION: 40.0   Build 359                               SATURDAY    
 INSTALLATION:                                           2:50:30 P.M.        

      KODE = 5  NTRIAL =   4  T = 100.0000  P =  253765.      V =  0.00000      Q =  0.00000    
      KODE = 5  NTRIAL =   4  T = 100.0000  P =  253765.      V =  0.00000      Q =  0.00000    
      KODE = 5  NTRIAL =   4  T = 100.0000  P =  253765.      V =  0.00000      Q =  0.00000    
      KODE = 5  NTRIAL =   4  T = 298.1500  P =  7924.05      V =  0.00000      Q =  0.00000    
      KODE = 5  NTRIAL =   4  T = 298.1500  P =  7924.05      V =  0.00000      Q =  0.00000    
      KODE = 5  NTRIAL =   4  T = 298.1500  P =  7924.05      V =  0.00000      Q =  0.00000    
      KODE = 5  NTRIAL =   4  T = 160.4987  P = 4.237256E+06  V =  0.00000      Q =  0.00000    
      KODE = 2  NTRIAL =   3  T = 145.6940  P = 6.000000E+06  V =  0.00000      Q =  0.00000    
      ITER =    18  T = 3569.5177  P =  6.000000E+06  PHASES = VAPOR
      KODE = 2  NTRIAL =   3  T = 145.6940  P = 6.000000E+06  V =  0.00000      Q =  0.00000    
      ITER =    18  T = 3569.5177  P =  6.000000E+06  PHASES = VAPOR
      KODE = 2  NTRIAL =   3  T = 145.6940  P = 6.000000E+06  V =  0.00000      Q =  0.00000    
      ITER =    18  T = 3569.5177  P =  6.000000E+06  PHASES = VAPOR
      KODE = 2  NTRIAL =   3  T = 145.6940  P = 6.000000E+06  V =  0.00000      Q =  0.00000    
      ITER =    18  T = 3569.5177  P =  6.000000E+06  PHASES = VAPOR
      KODE = 2  NTRIAL =   3  T = 145.6940  P = 6.000000E+06  V =  0.00000      Q =  0.00000    
      ITER =    18  T = 3569.5177  P =  6.000000E+06  PHASES = VAPOR
      KODE = 2  NTRIAL =   3  T = 145.6940  P = 6.000000E+06  V =  0.00000      Q =  0.00000    
      ITER =    18  T = 3569.5177  P =  6.000000E+06  PHASES = VAPOR
      KODE = 2  NTRIAL =   3  T = 145.6940  P = 6.000000E+06  V =  0.00000      Q =  0.00000    
      ITER =    18  T = 3569.5177  P =  6.000000E+06  PHASES = VAPOR
      KODE = 2  NTRIAL =   3  T = 145.6940  P = 6.000000E+06  V =  0.00000      Q =  0.00000    
      ITER =    18  T = 3569.5177  P =  6.000000E+06  PHASES = VAPOR
      KODE = 2  NTRIAL =   3  T = 145.6940  P = 6.000000E+06  V =  0.00000      Q =  0.00000    
      ITER =    18  T = 3569.5177  P =  6.000000E+06  PHASES = VAPOR
      KODE = 2  NTRIAL =   3  T = 145.6940  P = 6.000000E+06  V =  0.00000      Q =  0.00000    
      ITER =    18  T = 3569.5507  P =  6.000000E+06  PHASES = VAPOR
      KODE = 2  NTRIAL =   3  T = 145.6940  P = 6.000000E+06  V =  0.00000      Q =  0.00000    
      ITER =    18  T = 3569.5177  P =  6.000000E+06  PHASES = VAPOR
      KODE = 2  NTRIAL =   3  T = 145.6940  P = 6.000000E+06  V =  0.00000      Q =  0.00000    
      ITER =    18  T = 3569.5507  P =  6.000000E+06  PHASES = VAPOR
      KODE = 2  NTRIAL =   3  T = 145.6940  P = 6.000000E+06  V =  0.00000      Q =  0.00000    
      ITER =    18  T = 3569.5507  P =  6.000000E+06  PHASES = VAPOR
      KODE = 2  NTRIAL =   3  T = 145.6940  P = 6.000000E+06  V =  0.00000      Q =  0.00000    
      ITER =    18  T = 3569.5507  P =  6.000000E+06  PHASES = VAPOR
      KODE = 2  NTRIAL =   1  T = 160.4987  P = 6.000000E+06  V =  0.00000      Q =  0.00000    
      ITER =    18  T = 3569.5177  P =  6.000000E+06  PHASES = VAPOR
      KODE = 2  NTRIAL =   1  T = 160.4987  P = 6.000000E+06  V =  0.00000      Q =  0.00000    
      ITER =    18  T = 3569.5177  P =  6.000000E+06  PHASES = VAPOR
      KODE = 2  NTRIAL =   1  T = 160.4987  P = 6.000000E+06  V =  0.00000      Q =  0.00000    
      ITER =    18  T = 3569.5177  P =  6.000000E+06  PHASES = VAPOR
      KODE = 2  NTRIAL =   1  T = 160.4987  P = 6.000000E+06  V =  0.00000      Q =  0.00000    
      ITER =    18  T = 3569.5177  P =  6.000000E+06  PHASES = VAPOR
      KODE = 2  NTRIAL =   1  T = 160.4987  P = 6.000000E+06  V =  0.00000      Q =  0.00000    
      ITER =    18  T = 3569.5177  P =  6.000000E+06  PHASES = VAPOR
      KODE = 2  NTRIAL =   1  T = 160.4987  P = 6.000000E+06  V =  0.00000      Q =  0.00000    
      ITER =    18  T = 3569.5177  P =  6.000000E+06  PHASES = VAPOR
      KODE = 2  NTRIAL =   1  T = 160.4987  P = 6.000000E+06  V =  0.00000      Q =  0.00000    
      ITER =    18  T = 3569.5507  P =  6.000000E+06  PHASES = VAPOR
      KODE = 2  NTRIAL =   1  T = 160.4987  P = 6.000000E+06  V =  0.00000      Q =  0.00000    
      ITER =    18  T = 3569.5507  P =  6.000000E+06  PHASES = VAPOR
      KODE = 2  NTRIAL =   1  T = 160.4987  P = 6.000000E+06  V =  0.00000      Q =  0.00000    
      ITER =    18  T = 3569.5177  P =  6.000000E+06  PHASES = VAPOR
      KODE = 2  NTRIAL =   1  T = 160.4987  P = 6.000000E+06  V =  0.00000      Q =  0.00000    
      ITER =    18  T = 3569.5177  P =  6.000000E+06  PHASES = VAPOR
      KODE = 2  NTRIAL =   1  T = 160.4987  P = 6.000000E+06  V =  0.00000      Q =  0.00000    
      ITER =    18  T = 3569.5177  P =  6.000000E+06  PHASES = VAPOR
      KODE = 2  NTRIAL =   1  T = 160.4987  P = 6.000000E+06  V =  0.00000      Q =  0.00000    
      ITER =    18  T = 3569.5177  P =  6.000000E+06  PHASES = VAPOR
      KODE = 2  NTRIAL =   1  T = 160.4987  P = 6.000000E+06  V =  0.00000      Q =  0.00000    
      ITER =    18  T = 3569.5177  P =  6.000000E+06  PHASES = VAPOR
      KODE = 2  NTRIAL =   1  T = 160.4987  P = 6.000000E+06  V =  0.00000      Q =  0.00000    
      ITER =    18  T = 3569.5177  P =  6.000000E+06  PHASES = VAPOR
      KODE = 2  NTRIAL =   1  T = 160.4987  P = 6.000000E+06  V =  0.00000      Q =  0.00000    
      ITER =    18  T = 3569.5177  P =  6.000000E+06  PHASES = VAPOR
      KODE = 2  NTRIAL =   1  T = 160.4987  P = 6.000000E+06  V =  0.00000      Q =  0.00000    
      ITER =    18  T = 3569.5177  P =  6.000000E+06  PHASES = VAPOR
      KODE = 2  NTRIAL =   3  T = 145.6940  P = 6.000000E+06  V =  0.00000      Q =  0.00000    
      ITER =    18  T = 3569.5177  P =  6.000000E+06  PHASES = VAPOR
      KODE = 2  NTRIAL =   3  T = 145.6940  P = 6.000000E+06  V =  0.00000      Q =  0.00000    
      ITER =    18  T = 3569.5177  P =  6.000000E+06  PHASES = VAPOR
      KODE = 2  NTRIAL =   3  T = 145.6940  P = 6.000000E+06  V =  0.00000      Q =  0.00000    
      ITER =    18  T = 3569.5177  P =  6.000000E+06  PHASES = VAPOR
      KODE = 2  NTRIAL =   3  T = 145.6940  P = 6.000000E+06  V =  0.00000      Q =  0.00000    
      ITER =    18  T = 3569.5177  P =  6.000000E+06  PHASES = VAPOR
      KODE = 2  NTRIAL =   3  T = 145.6940  P = 6.000000E+06  V =  0.00000      Q =  0.00000    
      ITER =    18  T = 3569.5177  P =  6.000000E+06  PHASES = VAPOR
      KODE = 2  NTRIAL =   3  T = 145.6940  P = 6.000000E+06  V =  0.00000      Q =  0.00000    
      ITER =    18  T = 3569.5177  P =  6.000000E+06  PHASES = VAPOR
      KODE = 2  NTRIAL =   3  T = 145.6940  P = 6.000000E+06  V =  0.00000      Q =  0.00000    
      ITER =    18  T = 3569.5177  P =  6.000000E+06  PHASES = VAPOR
      KODE = 2  NTRIAL =   3  T = 145.6940  P = 6.000000E+06  V =  0.00000      Q =  0.00000    
      ITER =    18  T = 3569.5177  P =  6.000000E+06  PHASES = VAPOR
      KODE = 2  NTRIAL =   3  T = 145.6940  P = 6.000000E+06  V =  0.00000      Q =  0.00000    
      ITER =    18  T = 3569.5177  P =  6.000000E+06  PHASES = VAPOR
      KODE = 2  NTRIAL =   3  T = 145.6940  P = 6.000000E+06  V =  0.00000      Q =  0.00000    
      ITER =    18  T = 3569.5177  P =  6.000000E+06  PHASES = VAPOR
      KODE = 2  NTRIAL =   1  T = 160.4987  P = 6.000000E+06  V =  0.00000      Q =  0.00000    
      ITER =    18  T = 3569.5177  P =  6.000000E+06  PHASES = VAPOR
      KODE = 2  NTRIAL =   1  T = 160.4987  P = 6.000000E+06  V =  0.00000      Q =  0.00000    
      ITER =    18  T = 3569.5177  P =  6.000000E+06  PHASES = VAPOR
      KODE = 2  NTRIAL =   1  T = 160.4987  P = 6.000000E+06  V =  0.00000      Q =  0.00000    
      ITER =    18  T = 3569.5177  P =  6.000000E+06  PHASES = VAPOR
      KODE = 2  NTRIAL =   1  T = 160.4987  P = 6.000000E+06  V =  0.00000      Q =  0.00000    
      ITER =    18  T = 3569.5177  P =  6.000000E+06  PHASES = VAPOR
      KODE = 2  NTRIAL =   1  T = 160.4987  P = 6.000000E+06  V =  0.00000      Q =  0.00000    
      ITER =    18  T = 3569.5177  P =  6.000000E+06  PHASES = VAPOR
      KODE = 2  NTRIAL =   1  T = 160.4987  P = 6.000000E+06  V =  0.00000      Q =  0.00000    
      ITER =    18  T = 3569.5177  P =  6.000000E+06  PHASES = VAPOR
      KODE = 2  NTRIAL =   1  T = 160.4987  P = 6.000000E+06  V =  0.00000      Q =  0.00000    
      ITER =    18  T = 3569.5177  P =  6.000000E+06  PHASES = VAPOR
      KODE = 2  NTRIAL =   1  T = 160.4987  P = 6.000000E+06  V =  0.00000      Q =  0.00000    
      ITER =    18  T = 3569.5177  P =  6.000000E+06  PHASES = VAPOR
      KODE = 2  NTRIAL =   1  T = 160.4987  P = 6.000000E+06  V =  0.00000      Q =  0.00000    
      ITER =    18  T = 3569.5177  P =  6.000000E+06  PHASES = VAPOR
      KODE = 2  NTRIAL =   1  T = 160.4987  P = 6.000000E+06  V =  0.00000      Q =  0.00000    
      ITER =    18  T = 3569.5177  P =  6.000000E+06  PHASES = VAPOR
      KODE = 2  NTRIAL =   3  T = 145.6940  P = 6.000000E+06  V =  0.00000      Q =  0.00000    
      ITER =    18  T = 3569.5177  P =  6.000000E+06  PHASES = VAPOR
      KODE = 2  NTRIAL =   3  T = 145.6940  P = 6.000000E+06  V =  0.00000      Q =  0.00000    
      ITER =    18  T = 3569.5177  P =  6.000000E+06  PHASES = VAPOR
      KODE = 2  NTRIAL =   3  T = 145.6940  P = 6.000000E+06  V =  0.00000      Q =  0.00000    
      ITER =    18  T = 3569.5177  P =  6.000000E+06  PHASES = VAPOR
      KODE = 2  NTRIAL =   3  T = 145.6940  P = 6.000000E+06  V =  0.00000      Q =  0.00000    
      ITER =    18  T = 3569.5177  P =  6.000000E+06  PHASES = VAPOR
      KODE = 2  NTRIAL =   3  T = 145.6940  P = 6.000000E+06  V =  0.00000      Q =  0.00000    
      ITER =    18  T = 3569.5177  P =  6.000000E+06  PHASES = VAPOR
      KODE = 2  NTRIAL =   3  T = 145.6940  P = 6.000000E+06  V =  0.00000      Q =  0.00000    
      ITER =    18  T = 3569.5177  P =  6.000000E+06  PHASES = VAPOR
      KODE = 2  NTRIAL =   3  T = 145.6940  P = 6.000000E+06  V =  0.00000      Q =  0.00000    
      ITER =    18  T = 3569.5177  P =  6.000000E+06  PHASES = VAPOR
      KODE = 2  NTRIAL =   3  T = 145.6940  P = 6.000000E+06  V =  0.00000      Q =  0.00000    
      ITER =    18  T = 3569.5177  P =  6.000000E+06  PHASES = VAPOR
      KODE = 2  NTRIAL =   3  T = 145.6940  P = 6.000000E+06  V =  0.00000      Q =  0.00000    
      ITER =    18  T = 3569.5177  P =  6.000000E+06  PHASES = VAPOR
      KODE = 2  NTRIAL =   3  T = 145.6940  P = 6.000000E+06  V =  0.00000      Q =  0.00000    
      ITER =    18  T = 3569.5177  P =  6.000000E+06  PHASES = VAPOR
      KODE = 2  NTRIAL =   1  T = 160.4987  P = 6.000000E+06  V =  0.00000      Q =  0.00000    
      ITER =    18  T = 3569.5177  P =  6.000000E+06  PHASES = VAPOR
      KODE = 2  NTRIAL =   1  T = 160.4987  P = 6.000000E+06  V =  0.00000      Q =  0.00000    
      ITER =    18  T = 3569.5177  P =  6.000000E+06  PHASES = VAPOR
      KODE = 2  NTRIAL =   1  T = 160.4987  P = 6.000000E+06  V =  0.00000      Q =  0.00000    
      ITER =    18  T = 3569.5177  P =  6.000000E+06  PHASES = VAPOR
      KODE = 2  NTRIAL =   1  T = 160.4987  P = 6.000000E+06  V =  0.00000      Q =  0.00000    
      ITER =    18  T = 3569.5177  P =  6.000000E+06  PHASES = VAPOR
      KODE = 2  NTRIAL =   1  T = 160.4987  P = 6.000000E+06  V =  0.00000      Q =  0.00000    
      ITER =    18  T = 3569.5177  P =  6.000000E+06  PHASES = VAPOR
      KODE = 2  NTRIAL =   1  T = 160.4987  P = 6.000000E+06  V =  0.00000      Q =  0.00000    
      ITER =    18  T = 3569.5177  P =  6.000000E+06  PHASES = VAPOR
      KODE = 2  NTRIAL =   1  T = 160.4987  P = 6.000000E+06  V =  0.00000      Q =  0.00000    
      ITER =    18  T = 3569.5177  P =  6.000000E+06  PHASES = VAPOR
      KODE = 2  NTRIAL =   1  T = 160.4987  P = 6.000000E+06  V =  0.00000      Q =  0.00000    
      ITER =    18  T = 3569.5177  P =  6.000000E+06  PHASES = VAPOR
      KODE = 2  NTRIAL =   1  T = 160.4987  P = 6.000000E+06  V =  0.00000      Q =  0.00000    
      ITER =    18  T = 3569.5177  P =  6.000000E+06  PHASES = VAPOR
      KODE = 2  NTRIAL =   1  T = 160.4987  P = 6.000000E+06  V =  0.00000      Q =  0.00000    
      ITER =    18  T = 3569.5177  P =  6.000000E+06  PHASES = VAPOR
      KODE = 2  NTRIAL =   3  T = 145.6940  P = 6.000000E+06  V =  0.00000      Q =  0.00000    
      ITER =    18  T = 3569.5177  P =  6.000000E+06  PHASES = VAPOR
      KODE = 2  NTRIAL =   3  T = 145.6940  P = 6.000000E+06  V =  0.00000      Q =  0.00000    
      ITER =    18  T = 3569.5177  P =  6.000000E+06  PHASES = VAPOR
      KODE = 2  NTRIAL =   3  T = 145.6940  P = 6.000000E+06  V =  0.00000      Q =  0.00000    
      ITER =    18  T = 3569.5177  P =  6.000000E+06  PHASES = VAPOR
      KODE = 2  NTRIAL =   3  T = 145.6940  P = 6.000000E+06  V =  0.00000      Q =  0.00000    
      ITER =    18  T = 3569.5177  P =  6.000000E+06  PHASES = VAPOR
      KODE = 2  NTRIAL =   3  T = 145.6940  P = 6.000000E+06  V =  0.00000      Q =  0.00000    
      ITER =    18  T = 3569.5177  P =  6.000000E+06  PHASES = VAPOR
      KODE = 2  NTRIAL =   3  T = 145.6940  P = 6.000000E+06  V =  0.00000      Q =  0.00000    
      ITER =    18  T = 3569.5177  P =  6.000000E+06  PHASES = VAPOR
      KODE = 2  NTRIAL =   3  T = 145.6940  P = 6.000000E+06  V =  0.00000      Q =  0.00000    
      ITER =    18  T = 3569.5177  P =  6.000000E+06  PHASES = VAPOR
      KODE = 2  NTRIAL =   3  T = 145.6940  P = 6.000000E+06  V =  0.00000      Q =  0.00000    
      ITER =    18  T = 3569.5177  P =  6.000000E+06  PHASES = VAPOR
      KODE = 2  NTRIAL =   3  T = 145.6940  P = 6.000000E+06  V =  0.00000      Q =  0.00000    
      ITER =    18  T = 3569.5177  P =  6.000000E+06  PHASES = VAPOR
      KODE = 2  NTRIAL =   3  T = 145.6940  P = 6.000000E+06  V =  0.00000      Q =  0.00000    
      ITER =    18  T = 3569.5177  P =  6.000000E+06  PHASES = VAPOR
      KODE = 2  NTRIAL =   1  T = 160.4987  P = 6.000000E+06  V =  0.00000      Q =  0.00000    
      ITER =    18  T = 3569.5177  P =  6.000000E+06  PHASES = VAPOR
      KODE = 2  NTRIAL =   1  T = 160.4987  P = 6.000000E+06  V =  0.00000      Q =  0.00000    
      ITER =    18  T = 3569.5177  P =  6.000000E+06  PHASES = VAPOR
      KODE = 2  NTRIAL =   1  T = 160.4987  P = 6.000000E+06  V =  0.00000      Q =  0.00000    
      ITER =    18  T = 3569.5177  P =  6.000000E+06  PHASES = VAPOR
      KODE = 2  NTRIAL =   1  T = 160.4987  P = 6.000000E+06  V =  0.00000      Q =  0.00000    
      ITER =    18  T = 3569.5177  P =  6.000000E+06  PHASES = VAPOR
      KODE = 2  NTRIAL =   1  T = 160.4987  P = 6.000000E+06  V =  0.00000      Q =  0.00000    
      ITER =    18  T = 3569.5177  P =  6.000000E+06  PHASES = VAPOR
      KODE = 2  NTRIAL =   1  T = 160.4987  P = 6.000000E+06  V =  0.00000      Q =  0.00000    
      ITER =    18  T = 3569.5177  P =  6.000000E+06  PHASES = VAPOR
      KODE = 2  NTRIAL =   1  T = 160.4987  P = 6.000000E+06  V =  0.00000      Q =  0.00000    
      ITER =    18  T = 3569.5177  P =  6.000000E+06  PHASES = VAPOR
      KODE = 2  NTRIAL =   1  T = 160.4987  P = 6.000000E+06  V =  0.00000      Q =  0.00000    
      ITER =    18  T = 3569.5177  P =  6.000000E+06  PHASES = VAPOR
      KODE = 2  NTRIAL =   1  T = 160.4987  P = 6.000000E+06  V =  0.00000      Q =  0.00000    
      ITER =    18  T = 3569.5177  P =  6.000000E+06  PHASES = VAPOR
      KODE = 2  NTRIAL =   1  T = 160.4987  P = 6.000000E+06  V =  0.00000      Q =  0.00000    
      ITER =    18  T = 3569.5177  P =  6.000000E+06  PHASES = VAPOR
      KODE = 2  NTRIAL =   3  T = 145.6940  P = 6.000000E+06  V =  0.00000      Q =  0.00000    
      ITER =    18  T = 3569.5177  P =  6.000000E+06  PHASES = VAPOR
      KODE = 2  NTRIAL =   3  T = 145.6940  P = 6.000000E+06  V =  0.00000      Q =  0.00000    
      ITER =    18  T = 3569.5177  P =  6.000000E+06  PHASES = VAPOR
      KODE = 2  NTRIAL =   3  T = 145.6940  P = 6.000000E+06  V =  0.00000      Q =  0.00000    
      ITER =    18  T = 3569.5177  P =  6.000000E+06  PHASES = VAPOR
      KODE = 2  NTRIAL =   3  T = 145.6940  P = 6.000000E+06  V =  0.00000      Q =  0.00000    
      ITER =    18  T = 3569.5177  P =  6.000000E+06  PHASES = VAPOR
      KODE = 2  NTRIAL =   3  T = 145.6940  P = 6.000000E+06  V =  0.00000      Q =  0.00000    
      ITER =    18  T = 3569.5177  P =  6.000000E+06  PHASES = VAPOR
      KODE = 2  NTRIAL =   3  T = 145.6940  P = 6.000000E+06  V =  0.00000      Q =  0.00000    
      ITER =    18  T = 3569.5177  P =  6.000000E+06  PHASES = VAPOR
      KODE = 2  NTRIAL =   3  T = 145.6940  P = 6.000000E+06  V =  0.00000      Q =  0.00000    
      ITER =    18  T = 3569.5177  P =  6.000000E+06  PHASES = VAPOR
      KODE = 2  NTRIAL =   3  T = 145.6940  P = 6.000000E+06  V =  0.00000      Q =  0.00000    
      ITER =    18  T = 3569.5177  P =  6.000000E+06  PHASES = VAPOR
      KODE = 2  NTRIAL =   3  T = 145.6940  P = 6.000000E+06  V =  0.00000      Q =  0.00000    
      ITER =    18  T = 3569.5177  P =  6.000000E+06  PHASES = VAPOR
      KODE = 2  NTRIAL =   3  T = 145.6940  P = 6.000000E+06  V =  0.00000      Q =  0.00000    
      ITER =    18  T = 3569.5177  P =  6.000000E+06  PHASES = VAPOR
      KODE = 2  NTRIAL =   1  T = 160.4987  P = 6.000000E+06  V =  0.00000      Q =  0.00000    
      ITER =    18  T = 3569.5177  P =  6.000000E+06  PHASES = VAPOR
      KODE = 2  NTRIAL =   1  T = 160.4987  P = 6.000000E+06  V =  0.00000      Q =  0.00000    
      ITER =    18  T = 3569.5177  P =  6.000000E+06  PHASES = VAPOR
      KODE = 2  NTRIAL =   1  T = 160.4987  P = 6.000000E+06  V =  0.00000      Q =  0.00000    
      ITER =    18  T = 3569.5177  P =  6.000000E+06  PHASES = VAPOR
      KODE = 2  NTRIAL =   1  T = 160.4987  P = 6.000000E+06  V =  0.00000      Q =  0.00000    
      ITER =    18  T = 3569.5177  P =  6.000000E+06  PHASES = VAPOR
      KODE = 2  NTRIAL =   1  T = 160.4987  P = 6.000000E+06  V =  0.00000      Q =  0.00000    
      ITER =    18  T = 3569.5177  P =  6.000000E+06  PHASES = VAPOR
      KODE = 2  NTRIAL =   1  T = 160.4987  P = 6.000000E+06  V =  0.00000      Q =  0.00000    
      ITER =    18  T = 3569.5177  P =  6.000000E+06  PHASES = VAPOR
      KODE = 2  NTRIAL =   1  T = 160.4987  P = 6.000000E+06  V =  0.00000      Q =  0.00000    
      ITER =    18  T = 3569.5177  P =  6.000000E+06  PHASES = VAPOR
      KODE = 2  NTRIAL =   1  T = 160.4987  P = 6.000000E+06  V =  0.00000      Q =  0.00000    
      ITER =    18  T = 3569.5177  P =  6.000000E+06  PHASES = VAPOR
      KODE = 2  NTRIAL =   1  T = 160.4987  P = 6.000000E+06  V =  0.00000      Q =  0.00000    
      ITER =    18  T = 3569.5177  P =  6.000000E+06  PHASES = VAPOR
      KODE = 2  NTRIAL =   1  T = 160.4987  P = 6.000000E+06  V =  0.00000      Q =  0.00000    
      ITER =    18  T = 3569.5177  P =  6.000000E+06  PHASES = VAPOR
      KODE = 2  NTRIAL =   3  T = 145.6940  P = 6.000000E+06  V =  0.00000      Q =  0.00000    
      ITER =    18  T = 3569.5177  P =  6.000000E+06  PHASES = VAPOR
      KODE = 2  NTRIAL =   3  T = 145.6940  P = 6.000000E+06  V =  0.00000      Q =  0.00000    
      ITER =    18  T = 3569.5177  P =  6.000000E+06  PHASES = VAPOR
      KODE = 2  NTRIAL =   3  T = 145.6940  P = 6.000000E+06  V =  0.00000      Q =  0.00000    
      ITER =    18  T = 3569.5177  P =  6.000000E+06  PHASES = VAPOR
      KODE = 2  NTRIAL =   3  T = 145.6940  P = 6.000000E+06  V =  0.00000      Q =  0.00000    
      ITER =    18  T = 3569.5177  P =  6.000000E+06  PHASES = VAPOR
      KODE = 2  NTRIAL =   3  T = 145.6940  P = 6.000000E+06  V =  0.00000      Q =  0.00000    
      ITER =    18  T = 3569.5177  P =  6.000000E+06  PHASES = VAPOR
      KODE = 2  NTRIAL =   3  T = 145.6940  P = 6.000000E+06  V =  0.00000      Q =  0.00000    
      ITER =    18  T = 3569.5177  P =  6.000000E+06  PHASES = VAPOR
      KODE = 2  NTRIAL =   3  T = 145.6940  P = 6.000000E+06  V =  0.00000      Q =  0.00000    
      ITER =    18  T = 3569.5177  P =  6.000000E+06  PHASES = VAPOR
      KODE = 2  NTRIAL =   3  T = 145.6940  P = 6.000000E+06  V =  0.00000      Q =  0.00000    
      ITER =    18  T = 3569.5177  P =  6.000000E+06  PHASES = VAPOR
      KODE = 2  NTRIAL =   3  T = 145.6940  P = 6.000000E+06  V =  0.00000      Q =  0.00000    
      ITER =    18  T = 3569.5177  P =  6.000000E+06  PHASES = VAPOR
      KODE = 2  NTRIAL =   3  T = 145.6940  P = 6.000000E+06  V =  0.00000      Q =  0.00000    
      ITER =    18  T = 3569.5177  P =  6.000000E+06  PHASES = VAPOR
      KODE = 2  NTRIAL =   3  T = 145.6940  P = 6.000000E+06  V =  0.00000      Q =  0.00000    
      ITER =    18  T = 3569.5177  P =  6.000000E+06  PHASES = VAPOR
      KODE = 2  NTRIAL =   3  T = 145.6940  P = 6.000000E+06  V =  0.00000      Q =  0.00000    
      ITER =    18  T = 3569.5177  P =  6.000000E+06  PHASES = VAPOR
      KODE = 2  NTRIAL =   3  T = 145.6940  P = 6.000000E+06  V =  0.00000      Q =  0.00000    
      ITER =    18  T = 3569.5177  P =  6.000000E+06  PHASES = VAPOR
      KODE = 2  NTRIAL =   3  T = 145.6940  P = 6.000000E+06  V =  0.00000      Q =  0.00000    
      ITER =    18  T = 3569.5177  P =  6.000000E+06  PHASES = VAPOR
      KODE = 2  NTRIAL =   3  T = 145.6940  P = 6.000000E+06  V =  0.00000      Q =  0.00000    
      ITER =    18  T = 3569.5177  P =  6.000000E+06  PHASES = VAPOR
      KODE = 2  NTRIAL =   3  T = 145.6940  P = 6.000000E+06  V =  0.00000      Q =  0.00000    
      ITER =    18  T = 3569.5177  P =  6.000000E+06  PHASES = VAPOR
      KODE = 2  NTRIAL =   3  T = 145.6940  P = 6.000000E+06  V =  0.00000      Q =  0.00000    
      ITER =    18  T = 3569.5177  P =  6.000000E+06  PHASES = VAPOR
      KODE = 2  NTRIAL =   3  T = 145.6940  P = 6.000000E+06  V =  0.00000      Q =  0.00000    
      ITER =    18  T = 3569.5177  P =  6.000000E+06  PHASES = VAPOR
      KODE = 2  NTRIAL =   3  T = 145.6940  P = 6.000000E+06  V =  0.00000      Q =  0.00000    
      ITER =    18  T = 3569.5177  P =  6.000000E+06  PHASES = VAPOR
      KODE = 2  NTRIAL =   3  T = 145.6940  P = 6.000000E+06  V =  0.00000      Q =  0.00000    
      ITER =    18  T = 3569.5507  P =  6.000000E+06  PHASES = VAPOR
      KODE = 2  NTRIAL =   3  T = 145.6940  P = 6.000000E+06  V =  0.00000      Q =  0.00000    
      ITER =    18  T = 3569.5177  P =  6.000000E+06  PHASES = VAPOR
      KODE = 2  NTRIAL =   3  T = 145.6940  P = 6.000000E+06  V =  0.00000      Q =  0.00000    
      ITER =    18  T = 3569.5507  P =  6.000000E+06  PHASES = VAPOR
      KODE = 2  NTRIAL =   3  T = 145.6940  P = 6.000000E+06  V =  0.00000      Q =  0.00000    
      ITER =    18  T = 3569.5507  P =  6.000000E+06  PHASES = VAPOR
      KODE = 2  NTRIAL =   3  T = 145.6940  P = 6.000000E+06  V =  0.00000      Q =  0.00000    
      ITER =    18  T = 3569.5507  P =  6.000000E+06  PHASES = VAPOR
      KODE = 2  NTRIAL =   1  T = 160.4987  P = 6.000000E+06  V =  0.00000      Q =  0.00000    
      ITER =    18  T = 3569.5177  P =  6.000000E+06  PHASES = VAPOR
      KODE = 2  NTRIAL =   1  T = 160.4987  P = 6.000000E+06  V =  0.00000      Q =  0.00000    
      ITER =    18  T = 3569.5177  P =  6.000000E+06  PHASES = VAPOR
      KODE = 2  NTRIAL =   1  T = 160.4987  P = 6.000000E+06  V =  0.00000      Q =  0.00000    
      ITER =    18  T = 3569.5177  P =  6.000000E+06  PHASES = VAPOR
      KODE = 2  NTRIAL =   1  T = 160.4987  P = 6.000000E+06  V =  0.00000      Q =  0.00000    
      ITER =    18  T = 3569.5177  P =  6.000000E+06  PHASES = VAPOR
      KODE = 2  NTRIAL =   1  T = 160.4987  P = 6.000000E+06  V =  0.00000      Q =  0.00000    
      ITER =    18  T = 3569.5177  P =  6.000000E+06  PHASES = VAPOR
      KODE = 2  NTRIAL =   1  T = 160.4987  P = 6.000000E+06  V =  0.00000      Q =  0.00000    
      ITER =    18  T = 3569.5177  P =  6.000000E+06  PHASES = VAPOR
      KODE = 2  NTRIAL =   1  T = 160.4987  P = 6.000000E+06  V =  0.00000      Q =  0.00000    
      ITER =    18  T = 3569.5507  P =  6.000000E+06  PHASES = VAPOR
      KODE = 2  NTRIAL =   1  T = 160.4987  P = 6.000000E+06  V =  0.00000      Q =  0.00000    
      ITER =    18  T = 3569.5507  P =  6.000000E+06  PHASES = VAPOR
      KODE = 2  NTRIAL =   1  T = 160.4987  P = 6.000000E+06  V =  0.00000      Q =  0.00000    
      ITER =    18  T = 3569.5177  P =  6.000000E+06  PHASES = VAPOR
      KODE = 2  NTRIAL =   1  T = 160.4987  P = 6.000000E+06  V =  0.00000      Q =  0.00000    
      ITER =    18  T = 3569.5177  P =  6.000000E+06  PHASES = VAPOR
      KODE = 2  NTRIAL =   1  T = 160.4987  P = 6.000000E+06  V =  0.00000      Q =  0.00000    
      ITER =    18  T = 3569.5177  P =  6.000000E+06  PHASES = VAPOR
      KODE = 2  NTRIAL =   1  T = 160.4987  P = 6.000000E+06  V =  0.00000      Q =  0.00000    
      ITER =    18  T = 3569.5177  P =  6.000000E+06  PHASES = VAPOR
      KODE = 2  NTRIAL =   1  T = 160.4987  P = 6.000000E+06  V =  0.00000      Q =  0.00000    
      ITER =    18  T = 3569.5177  P =  6.000000E+06  PHASES = VAPOR
      KODE = 2  NTRIAL =   1  T = 160.4987  P = 6.000000E+06  V =  0.00000      Q =  0.00000    
      ITER =    18  T = 3569.5177  P =  6.000000E+06  PHASES = VAPOR
      KODE = 2  NTRIAL =   1  T = 160.4987  P = 6.000000E+06  V =  0.00000      Q =  0.00000    
      ITER =    18  T = 3569.5177  P =  6.000000E+06  PHASES = VAPOR
      KODE = 2  NTRIAL =   1  T = 160.4987  P = 6.000000E+06  V =  0.00000      Q =  0.00000    
      ITER =    18  T = 3569.5177  P =  6.000000E+06  PHASES = VAPOR
      KODE = 2  NTRIAL =   3  T = 145.6940  P = 6.000000E+06  V =  0.00000      Q =  0.00000    
      ITER =    18  T = 3569.5177  P =  6.000000E+06  PHASES = VAPOR
      KODE = 2  NTRIAL =   3  T = 145.6940  P = 6.000000E+06  V =  0.00000      Q =  0.00000    
      ITER =    18  T = 3569.5177  P =  6.000000E+06  PHASES = VAPOR
      KODE = 2  NTRIAL =   3  T = 145.6940  P = 6.000000E+06  V =  0.00000      Q =  0.00000    
      ITER =    18  T = 3569.5177  P =  6.000000E+06  PHASES = VAPOR
      KODE = 2  NTRIAL =   3  T = 145.6940  P = 6.000000E+06  V =  0.00000      Q =  0.00000    
      ITER =    18  T = 3569.5177  P =  6.000000E+06  PHASES = VAPOR
      KODE = 2  NTRIAL =   3  T = 145.6940  P = 6.000000E+06  V =  0.00000      Q =  0.00000    
      ITER =    18  T = 3569.5177  P =  6.000000E+06  PHASES = VAPOR
      KODE = 2  NTRIAL =   3  T = 145.6940  P = 6.000000E+06  V =  0.00000      Q =  0.00000    
      ITER =    18  T = 3569.5177  P =  6.000000E+06  PHASES = VAPOR
      KODE = 2  NTRIAL =   3  T = 145.6940  P = 6.000000E+06  V =  0.00000      Q =  0.00000    
      ITER =    18  T = 3569.5177  P =  6.000000E+06  PHASES = VAPOR
      KODE = 2  NTRIAL =   3  T = 145.6940  P = 6.000000E+06  V =  0.00000      Q =  0.00000    
      ITER =    18  T = 3569.5177  P =  6.000000E+06  PHASES = VAPOR
      KODE = 2  NTRIAL =   3  T = 145.6940  P = 6.000000E+06  V =  0.00000      Q =  0.00000    
      ITER =    18  T = 3569.5177  P =  6.000000E+06  PHASES = VAPOR
      KODE = 2  NTRIAL =   3  T = 145.6940  P = 6.000000E+06  V =  0.00000      Q =  0.00000    
      ITER =    18  T = 3569.5177  P =  6.000000E+06  PHASES = VAPOR
      KODE = 2  NTRIAL =   1  T = 160.4987  P = 6.000000E+06  V =  0.00000      Q =  0.00000    
      ITER =    18  T = 3569.5177  P =  6.000000E+06  PHASES = VAPOR
      KODE = 2  NTRIAL =   1  T = 160.4987  P = 6.000000E+06  V =  0.00000      Q =  0.00000    
      ITER =    18  T = 3569.5177  P =  6.000000E+06  PHASES = VAPOR
      KODE = 2  NTRIAL =   1  T = 160.4987  P = 6.000000E+06  V =  0.00000      Q =  0.00000    
      ITER =    18  T = 3569.5177  P =  6.000000E+06  PHASES = VAPOR
      KODE = 2  NTRIAL =   1  T = 160.4987  P = 6.000000E+06  V =  0.00000      Q =  0.00000    
      ITER =    18  T = 3569.5177  P =  6.000000E+06  PHASES = VAPOR
      KODE = 2  NTRIAL =   1  T = 160.4987  P = 6.000000E+06  V =  0.00000      Q =  0.00000    
      ITER =    18  T = 3569.5177  P =  6.000000E+06  PHASES = VAPOR
      KODE = 2  NTRIAL =   1  T = 160.4987  P = 6.000000E+06  V =  0.00000      Q =  0.00000    
      ITER =    18  T = 3569.5177  P =  6.000000E+06  PHASES = VAPOR
      KODE = 2  NTRIAL =   1  T = 160.4987  P = 6.000000E+06  V =  0.00000      Q =  0.00000    
      ITER =    18  T = 3569.5177  P =  6.000000E+06  PHASES = VAPOR
      KODE = 2  NTRIAL =   1  T = 160.4987  P = 6.000000E+06  V =  0.00000      Q =  0.00000    
      ITER =    18  T = 3569.5177  P =  6.000000E+06  PHASES = VAPOR
      KODE = 2  NTRIAL =   1  T = 160.4987  P = 6.000000E+06  V =  0.00000      Q =  0.00000    
      ITER =    18  T = 3569.5177  P =  6.000000E+06  PHASES = VAPOR
      KODE = 2  NTRIAL =   1  T = 160.4987  P = 6.000000E+06  V =  0.00000      Q =  0.00000    
      ITER =    18  T = 3569.5177  P =  6.000000E+06  PHASES = VAPOR
      KODE = 2  NTRIAL =   3  T = 145.6940  P = 6.000000E+06  V =  0.00000      Q =  0.00000    
      ITER =    18  T = 3569.5177  P =  6.000000E+06  PHASES = VAPOR
      KODE = 2  NTRIAL =   3  T = 145.6940  P = 6.000000E+06  V =  0.00000      Q =  0.00000    
      ITER =    18  T = 3569.5177  P =  6.000000E+06  PHASES = VAPOR
      KODE = 2  NTRIAL =   3  T = 145.6940  P = 6.000000E+06  V =  0.00000      Q =  0.00000    
      ITER =    18  T = 3569.5177  P =  6.000000E+06  PHASES = VAPOR
      KODE = 2  NTRIAL =   3  T = 145.6940  P = 6.000000E+06  V =  0.00000      Q =  0.00000    
      ITER =    18  T = 3569.5177  P =  6.000000E+06  PHASES = VAPOR
      KODE = 2  NTRIAL =   3  T = 145.6940  P = 6.000000E+06  V =  0.00000      Q =  0.00000    
      ITER =    18  T = 3569.5177  P =  6.000000E+06  PHASES = VAPOR
      KODE = 2  NTRIAL =   3  T = 145.6940  P = 6.000000E+06  V =  0.00000      Q =  0.00000    
      ITER =    18  T = 3569.5177  P =  6.000000E+06  PHASES = VAPOR
      KODE = 2  NTRIAL =   3  T = 145.6940  P = 6.000000E+06  V =  0.00000      Q =  0.00000    
      ITER =    18  T = 3569.5177  P =  6.000000E+06  PHASES = VAPOR
      KODE = 2  NTRIAL =   3  T = 145.6940  P = 6.000000E+06  V =  0.00000      Q =  0.00000    
      ITER =    18  T = 3569.5177  P =  6.000000E+06  PHASES = VAPOR
      KODE = 2  NTRIAL =   3  T = 145.6940  P = 6.000000E+06  V =  0.00000      Q =  0.00000    
      ITER =    18  T = 3569.5177  P =  6.000000E+06  PHASES = VAPOR
      KODE = 2  NTRIAL =   3  T = 145.6940  P = 6.000000E+06  V =  0.00000      Q =  0.00000    
      ITER =    18  T = 3569.5177  P =  6.000000E+06  PHASES = VAPOR
      KODE = 2  NTRIAL =   1  T = 160.4987  P = 6.000000E+06  V =  0.00000      Q =  0.00000    
      ITER =    18  T = 3569.5177  P =  6.000000E+06  PHASES = VAPOR
      KODE = 2  NTRIAL =   1  T = 160.4987  P = 6.000000E+06  V =  0.00000      Q =  0.00000    
      ITER =    18  T = 3569.5177  P =  6.000000E+06  PHASES = VAPOR
      KODE = 2  NTRIAL =   1  T = 160.4987  P = 6.000000E+06  V =  0.00000      Q =  0.00000    
      ITER =    18  T = 3569.5177  P =  6.000000E+06  PHASES = VAPOR
      KODE = 2  NTRIAL =   1  T = 160.4987  P = 6.000000E+06  V =  0.00000      Q =  0.00000    
      ITER =    18  T = 3569.5177  P =  6.000000E+06  PHASES = VAPOR
      KODE = 2  NTRIAL =   1  T = 160.4987  P = 6.000000E+06  V =  0.00000      Q =  0.00000    
      ITER =    18  T = 3569.5177  P =  6.000000E+06  PHASES = VAPOR
      KODE = 2  NTRIAL =   1  T = 160.4987  P = 6.000000E+06  V =  0.00000      Q =  0.00000    
      ITER =    18  T = 3569.5177  P =  6.000000E+06  PHASES = VAPOR
      KODE = 2  NTRIAL =   1  T = 160.4987  P = 6.000000E+06  V =  0.00000      Q =  0.00000    
      ITER =    18  T = 3569.5177  P =  6.000000E+06  PHASES = VAPOR
      KODE = 2  NTRIAL =   1  T = 160.4987  P = 6.000000E+06  V =  0.00000      Q =  0.00000    
      ITER =    18  T = 3569.5177  P =  6.000000E+06  PHASES = VAPOR
      KODE = 2  NTRIAL =   1  T = 160.4987  P = 6.000000E+06  V =  0.00000      Q =  0.00000    
      ITER =    18  T = 3569.5177  P =  6.000000E+06  PHASES = VAPOR
      KODE = 2  NTRIAL =   1  T = 160.4987  P = 6.000000E+06  V =  0.00000      Q =  0.00000    
      ITER =    18  T = 3569.5177  P =  6.000000E+06  PHASES = VAPOR
      KODE = 2  NTRIAL =   3  T = 145.6940  P = 6.000000E+06  V =  0.00000      Q =  0.00000    
      ITER =    18  T = 3569.5177  P =  6.000000E+06  PHASES = VAPOR
      KODE = 2  NTRIAL =   3  T = 145.6940  P = 6.000000E+06  V =  0.00000      Q =  0.00000    
      ITER =    18  T = 3569.5177  P =  6.000000E+06  PHASES = VAPOR
      KODE = 2  NTRIAL =   3  T = 145.6940  P = 6.000000E+06  V =  0.00000      Q =  0.00000    
      ITER =    18  T = 3569.5177  P =  6.000000E+06  PHASES = VAPOR
      KODE = 2  NTRIAL =   3  T = 145.6940  P = 6.000000E+06  V =  0.00000      Q =  0.00000    
      ITER =    18  T = 3569.5177  P =  6.000000E+06  PHASES = VAPOR
      KODE = 2  NTRIAL =   3  T = 145.6940  P = 6.000000E+06  V =  0.00000      Q =  0.00000    
      ITER =    18  T = 3569.5177  P =  6.000000E+06  PHASES = VAPOR
      KODE = 2  NTRIAL =   3  T = 145.6940  P = 6.000000E+06  V =  0.00000      Q =  0.00000    
      ITER =    18  T = 3569.5177  P =  6.000000E+06  PHASES = VAPOR
      KODE = 2  NTRIAL =   3  T = 145.6940  P = 6.000000E+06  V =  0.00000      Q =  0.00000    
      ITER =    18  T = 3569.5177  P =  6.000000E+06  PHASES = VAPOR
      KODE = 2  NTRIAL =   3  T = 145.6940  P = 6.000000E+06  V =  0.00000      Q =  0.00000    
      ITER =    18  T = 3569.5177  P =  6.000000E+06  PHASES = VAPOR
      KODE = 2  NTRIAL =   3  T = 145.6940  P = 6.000000E+06  V =  0.00000      Q =  0.00000    
      ITER =    18  T = 3569.5177  P =  6.000000E+06  PHASES = VAPOR
      KODE = 2  NTRIAL =   3  T = 145.6940  P = 6.000000E+06  V =  0.00000      Q =  0.00000    
      ITER =    18  T = 3569.5177  P =  6.000000E+06  PHASES = VAPOR
      KODE = 2  NTRIAL =   1  T = 160.4987  P = 6.000000E+06  V =  0.00000      Q =  0.00000    
      ITER =    18  T = 3569.5177  P =  6.000000E+06  PHASES = VAPOR
      KODE = 2  NTRIAL =   1  T = 160.4987  P = 6.000000E+06  V =  0.00000      Q =  0.00000    
      ITER =    18  T = 3569.5177  P =  6.000000E+06  PHASES = VAPOR
      KODE = 2  NTRIAL =   1  T = 160.4987  P = 6.000000E+06  V =  0.00000      Q =  0.00000    
      ITER =    18  T = 3569.5177  P =  6.000000E+06  PHASES = VAPOR
      KODE = 2  NTRIAL =   1  T = 160.4987  P = 6.000000E+06  V =  0.00000      Q =  0.00000    
      ITER =    18  T = 3569.5177  P =  6.000000E+06  PHASES = VAPOR
      KODE = 2  NTRIAL =   1  T = 160.4987  P = 6.000000E+06  V =  0.00000      Q =  0.00000    
      ITER =    18  T = 3569.5177  P =  6.000000E+06  PHASES = VAPOR
      KODE = 2  NTRIAL =   1  T = 160.4987  P = 6.000000E+06  V =  0.00000      Q =  0.00000    
      ITER =    18  T = 3569.5177  P =  6.000000E+06  PHASES = VAPOR
      KODE = 2  NTRIAL =   1  T = 160.4987  P = 6.000000E+06  V =  0.00000      Q =  0.00000    
      ITER =    18  T = 3569.5177  P =  6.000000E+06  PHASES = VAPOR
      KODE = 2  NTRIAL =   1  T = 160.4987  P = 6.000000E+06  V =  0.00000      Q =  0.00000    
      ITER =    18  T = 3569.5177  P =  6.000000E+06  PHASES = VAPOR
      KODE = 2  NTRIAL =   1  T = 160.4987  P = 6.000000E+06  V =  0.00000      Q =  0.00000    
      ITER =    18  T = 3569.5177  P =  6.000000E+06  PHASES = VAPOR
      KODE = 2  NTRIAL =   1  T = 160.4987  P = 6.000000E+06  V =  0.00000      Q =  0.00000    
      ITER =    18  T = 3569.5177  P =  6.000000E+06  PHASES = VAPOR
      KODE = 2  NTRIAL =   3  T = 145.6940  P = 6.000000E+06  V =  0.00000      Q =  0.00000    
      ITER =    18  T = 3569.5177  P =  6.000000E+06  PHASES = VAPOR
      KODE = 2  NTRIAL =   3  T = 145.6940  P = 6.000000E+06  V =  0.00000      Q =  0.00000    
      ITER =    18  T = 3569.5177  P =  6.000000E+06  PHASES = VAPOR
      KODE = 2  NTRIAL =   3  T = 145.6940  P = 6.000000E+06  V =  0.00000      Q =  0.00000    
      ITER =    18  T = 3569.5177  P =  6.000000E+06  PHASES = VAPOR
      KODE = 2  NTRIAL =   3  T = 145.6940  P = 6.000000E+06  V =  0.00000      Q =  0.00000    
      ITER =    18  T = 3569.5177  P =  6.000000E+06  PHASES = VAPOR
      KODE = 2  NTRIAL =   3  T = 145.6940  P = 6.000000E+06  V =  0.00000      Q =  0.00000    
      ITER =    18  T = 3569.5177  P =  6.000000E+06  PHASES = VAPOR
      KODE = 2  NTRIAL =   3  T = 145.6940  P = 6.000000E+06  V =  0.00000      Q =  0.00000    
      ITER =    18  T = 3569.5177  P =  6.000000E+06  PHASES = VAPOR
      KODE = 2  NTRIAL =   3  T = 145.6940  P = 6.000000E+06  V =  0.00000      Q =  0.00000    
      ITER =    18  T = 3569.5177  P =  6.000000E+06  PHASES = VAPOR
      KODE = 2  NTRIAL =   3  T = 145.6940  P = 6.000000E+06  V =  0.00000      Q =  0.00000    
      ITER =    18  T = 3569.5177  P =  6.000000E+06  PHASES = VAPOR
      KODE = 2  NTRIAL =   3  T = 145.6940  P = 6.000000E+06  V =  0.00000      Q =  0.00000    
      ITER =    18  T = 3569.5177  P =  6.000000E+06  PHASES = VAPOR
      KODE = 2  NTRIAL =   3  T = 145.6940  P = 6.000000E+06  V =  0.00000      Q =  0.00000    
      ITER =    18  T = 3569.5177  P =  6.000000E+06  PHASES = VAPOR
      KODE = 2  NTRIAL =   1  T = 160.4987  P = 6.000000E+06  V =  0.00000      Q =  0.00000    
      ITER =    18  T = 3569.5177  P =  6.000000E+06  PHASES = VAPOR
      KODE = 2  NTRIAL =   1  T = 160.4987  P = 6.000000E+06  V =  0.00000      Q =  0.00000    
      ITER =    18  T = 3569.5177  P =  6.000000E+06  PHASES = VAPOR
      KODE = 2  NTRIAL =   1  T = 160.4987  P = 6.000000E+06  V =  0.00000      Q =  0.00000    
      ITER =    18  T = 3569.5177  P =  6.000000E+06  PHASES = VAPOR
      KODE = 2  NTRIAL =   1  T = 160.4987  P = 6.000000E+06  V =  0.00000      Q =  0.00000    
      ITER =    18  T = 3569.5177  P =  6.000000E+06  PHASES = VAPOR
      KODE = 2  NTRIAL =   1  T = 160.4987  P = 6.000000E+06  V =  0.00000      Q =  0.00000    
      ITER =    18  T = 3569.5177  P =  6.000000E+06  PHASES = VAPOR
      KODE = 2  NTRIAL =   1  T = 160.4987  P = 6.000000E+06  V =  0.00000      Q =  0.00000    
      ITER =    18  T = 3569.5177  P =  6.000000E+06  PHASES = VAPOR
      KODE = 2  NTRIAL =   1  T = 160.4987  P = 6.000000E+06  V =  0.00000      Q =  0.00000    
      ITER =    18  T = 3569.5177  P =  6.000000E+06  PHASES = VAPOR
      KODE = 2  NTRIAL =   1  T = 160.4987  P = 6.000000E+06  V =  0.00000      Q =  0.00000    
      ITER =    18  T = 3569.5177  P =  6.000000E+06  PHASES = VAPOR
      KODE = 2  NTRIAL =   1  T = 160.4987  P = 6.000000E+06  V =  0.00000      Q =  0.00000    
      ITER =    18  T = 3569.5177  P =  6.000000E+06  PHASES = VAPOR
      KODE = 2  NTRIAL =   1  T = 160.4987  P = 6.000000E+06  V =  0.00000      Q =  0.00000    
      ITER =    18  T = 3569.5177  P =  6.000000E+06  PHASES = VAPOR
      KODE = 2  NTRIAL =   3  T = 145.6940  P = 6.000000E+06  V =  0.00000      Q =  0.00000    
      ITER =    18  T = 3569.5177  P =  6.000000E+06  PHASES = VAPOR
      KODE = 2  NTRIAL =   3  T = 145.6940  P = 6.000000E+06  V =  0.00000      Q =  0.00000    
      ITER =    18  T = 3569.5177  P =  6.000000E+06  PHASES = VAPOR
      KODE = 2  NTRIAL =   3  T = 145.6940  P = 6.000000E+06  V =  0.00000      Q =  0.00000    
      ITER =    18  T = 3569.5177  P =  6.000000E+06  PHASES = VAPOR
      KODE = 2  NTRIAL =   3  T = 145.6940  P = 6.000000E+06  V =  0.00000      Q =  0.00000    
      ITER =    18  T = 3569.5177  P =  6.000000E+06  PHASES = VAPOR
      KODE = 2  NTRIAL =   3  T = 145.6940  P = 6.000000E+06  V =  0.00000      Q =  0.00000    
      ITER =    18  T = 3569.5177  P =  6.000000E+06  PHASES = VAPOR
      KODE = 2  NTRIAL =   3  T = 145.6940  P = 6.000000E+06  V =  0.00000      Q =  0.00000    
      ITER =    18  T = 3569.5177  P =  6.000000E+06  PHASES = VAPOR
      KODE = 2  NTRIAL =   3  T = 145.6940  P = 6.000000E+06  V =  0.00000      Q =  0.00000    
      ITER =    18  T = 3569.5177  P =  6.000000E+06  PHASES = VAPOR
      KODE = 2  NTRIAL =   3  T = 145.6940  P = 6.000000E+06  V =  0.00000      Q =  0.00000    
      ITER =    18  T = 3569.5177  P =  6.000000E+06  PHASES = VAPOR
      KODE = 2  NTRIAL =   3  T = 145.6940  P = 6.000000E+06  V =  0.00000      Q =  0.00000    
      ITER =    18  T = 3569.5177  P =  6.000000E+06  PHASES = VAPOR
      KODE = 2  NTRIAL =   3  T = 145.6940  P = 6.000000E+06  V =  0.00000      Q =  0.00000    
      ITER =    18  T = 3569.5177  P =  6.000000E+06  PHASES = VAPOR
      KODE = 2  NTRIAL =   1  T = 160.4987  P = 6.000000E+06  V =  0.00000      Q =  0.00000    
      ITER =    18  T = 3569.5177  P =  6.000000E+06  PHASES = VAPOR
      KODE = 2  NTRIAL =   1  T = 160.4987  P = 6.000000E+06  V =  0.00000      Q =  0.00000    
      ITER =    18  T = 3569.5177  P =  6.000000E+06  PHASES = VAPOR
      KODE = 2  NTRIAL =   1  T = 160.4987  P = 6.000000E+06  V =  0.00000      Q =  0.00000    
      ITER =    18  T = 3569.5177  P =  6.000000E+06  PHASES = VAPOR
      KODE = 2  NTRIAL =   1  T = 160.4987  P = 6.000000E+06  V =  0.00000      Q =  0.00000    
      ITER =    18  T = 3569.5177  P =  6.000000E+06  PHASES = VAPOR
      KODE = 2  NTRIAL =   1  T = 160.4987  P = 6.000000E+06  V =  0.00000      Q =  0.00000    
      ITER =    18  T = 3569.5177  P =  6.000000E+06  PHASES = VAPOR
      KODE = 2  NTRIAL =   1  T = 160.4987  P = 6.000000E+06  V =  0.00000      Q =  0.00000    
      ITER =    18  T = 3569.5177  P =  6.000000E+06  PHASES = VAPOR
      KODE = 2  NTRIAL =   1  T = 160.4987  P = 6.000000E+06  V =  0.00000      Q =  0.00000    
      ITER =    18  T = 3569.5177  P =  6.000000E+06  PHASES = VAPOR
      KODE = 2  NTRIAL =   1  T = 160.4987  P = 6.000000E+06  V =  0.00000      Q =  0.00000    
      ITER =    18  T = 3569.5177  P =  6.000000E+06  PHASES = VAPOR
      KODE = 2  NTRIAL =   1  T = 160.4987  P = 6.000000E+06  V =  0.00000      Q =  0.00000    
      ITER =    18  T = 3569.5177  P =  6.000000E+06  PHASES = VAPOR
      KODE = 2  NTRIAL =   1  T = 160.4987  P = 6.000000E+06  V =  0.00000      Q =  0.00000    
      ITER =    18  T = 3569.5177  P =  6.000000E+06  PHASES = VAPOR
      KODE = 2  NTRIAL =   3  T = 145.6940  P = 6.000000E+06  V =  0.00000      Q =  0.00000    
      ITER =    18  T = 3569.5177  P =  6.000000E+06  PHASES = VAPOR
      KODE = 2  NTRIAL =   3  T = 145.6940  P = 6.000000E+06  V =  0.00000      Q =  0.00000    
      ITER =    18  T = 3569.5177  P =  6.000000E+06  PHASES = VAPOR
      KODE = 2  NTRIAL =   3  T = 145.6940  P = 6.000000E+06  V =  0.00000      Q =  0.00000    
      ITER =    18  T = 3569.5177  P =  6.000000E+06  PHASES = VAPOR
      KODE = 2  NTRIAL =   3  T = 145.6940  P = 6.000000E+06  V =  0.00000      Q =  0.00000    
      ITER =    18  T = 3569.5177  P =  6.000000E+06  PHASES = VAPOR
      KODE = 2  NTRIAL =   3  T = 145.6940  P = 6.000000E+06  V =  0.00000      Q =  0.00000    
      ITER =    18  T = 3569.5177  P =  6.000000E+06  PHASES = VAPOR
      KODE = 2  NTRIAL =   3  T = 145.6940  P = 6.000000E+06  V =  0.00000      Q =  0.00000    
      ITER =    18  T = 3569.5177  P =  6.000000E+06  PHASES = VAPOR
      KODE = 2  NTRIAL =   3  T = 145.6940  P = 6.000000E+06  V =  0.00000      Q =  0.00000    
      ITER =    18  T = 3569.5177  P =  6.000000E+06  PHASES = VAPOR
      KODE = 2  NTRIAL =   3  T = 145.6940  P = 6.000000E+06  V =  0.00000      Q =  0.00000    
      ITER =    18  T = 3569.5177  P =  6.000000E+06  PHASES = VAPOR
      KODE = 2  NTRIAL =   3  T = 145.6940  P = 6.000000E+06  V =  0.00000      Q =  0.00000    
      ITER =    18  T = 3569.5177  P =  6.000000E+06  PHASES = VAPOR
      KODE = 2  NTRIAL =   3  T = 145.6940  P = 6.000000E+06  V =  0.00000      Q =  0.00000    
      ITER =    18  T = 3569.5177  P =  6.000000E+06  PHASES = VAPOR
      KODE = 2  NTRIAL =   1  T = 160.4987  P = 6.000000E+06  V =  0.00000      Q =  0.00000    
      ITER =    18  T = 3569.5177  P =  6.000000E+06  PHASES = VAPOR
      KODE = 2  NTRIAL =   1  T = 160.4987  P = 6.000000E+06  V =  0.00000      Q =  0.00000    
      ITER =    18  T = 3569.5177  P =  6.000000E+06  PHASES = VAPOR
      KODE = 2  NTRIAL =   1  T = 160.4987  P = 6.000000E+06  V =  0.00000      Q =  0.00000    
      ITER =    18  T = 3569.5177  P =  6.000000E+06  PHASES = VAPOR
      KODE = 2  NTRIAL =   1  T = 160.4987  P = 6.000000E+06  V =  0.00000      Q =  0.00000    
      ITER =    18  T = 3569.5177  P =  6.000000E+06  PHASES = VAPOR
      KODE = 2  NTRIAL =   1  T = 160.4987  P = 6.000000E+06  V =  0.00000      Q =  0.00000    
      ITER =    18  T = 3569.5177  P =  6.000000E+06  PHASES = VAPOR
      KODE = 2  NTRIAL =   1  T = 160.4987  P = 6.000000E+06  V =  0.00000      Q =  0.00000    
      ITER =    18  T = 3569.5177  P =  6.000000E+06  PHASES = VAPOR
      KODE = 2  NTRIAL =   1  T = 160.4987  P = 6.000000E+06  V =  0.00000      Q =  0.00000    
      ITER =    18  T = 3569.5177  P =  6.000000E+06  PHASES = VAPOR
      KODE = 2  NTRIAL =   1  T = 160.4987  P = 6.000000E+06  V =  0.00000      Q =  0.00000    
      ITER =    18  T = 3569.5177  P =  6.000000E+06  PHASES = VAPOR
      KODE = 2  NTRIAL =   1  T = 160.4987  P = 6.000000E+06  V =  0.00000      Q =  0.00000    
      ITER =    18  T = 3569.5177  P =  6.000000E+06  PHASES = VAPOR
      KODE = 2  NTRIAL =   1  T = 160.4987  P = 6.000000E+06  V =  0.00000      Q =  0.00000    
      ITER =    18  T = 3569.5177  P =  6.000000E+06  PHASES = VAPOR
      KODE = 2  NTRIAL =   3  T = 145.6940  P = 6.000000E+06  V =  0.00000      Q =  0.00000    
      ITER =    18  T = 3569.5177  P =  6.000000E+06  PHASES = VAPOR
      KODE = 2  NTRIAL =   3  T = 145.6940  P = 6.000000E+06  V =  0.00000      Q =  0.00000    
      ITER =    18  T = 3569.5177  P =  6.000000E+06  PHASES = VAPOR
      KODE = 2  NTRIAL =   3  T = 145.6940  P = 6.000000E+06  V =  0.00000      Q =  0.00000    
      ITER =    18  T = 3569.5177  P =  6.000000E+06  PHASES = VAPOR
      KODE = 2  NTRIAL =   3  T = 145.6940  P = 6.000000E+06  V =  0.00000      Q =  0.00000    
      ITER =    18  T = 3569.5177  P =  6.000000E+06  PHASES = VAPOR
      KODE = 2  NTRIAL =   3  T = 145.6940  P = 6.000000E+06  V =  0.00000      Q =  0.00000    
      ITER =    18  T = 3569.5177  P =  6.000000E+06  PHASES = VAPOR
      KODE = 2  NTRIAL =   3  T = 145.6940  P = 6.000000E+06  V =  0.00000      Q =  0.00000    
      ITER =    18  T = 3569.5177  P =  6.000000E+06  PHASES = VAPOR
      KODE = 2  NTRIAL =   3  T = 145.6940  P = 6.000000E+06  V =  0.00000      Q =  0.00000    
      ITER =    18  T = 3569.5177  P =  6.000000E+06  PHASES = VAPOR
      KODE = 2  NTRIAL =   3  T = 145.6940  P = 6.000000E+06  V =  0.00000      Q =  0.00000    
      ITER =    18  T = 3569.5177  P =  6.000000E+06  PHASES = VAPOR
      KODE = 2  NTRIAL =   3  T = 145.6940  P = 6.000000E+06  V =  0.00000      Q =  0.00000    
      ITER =    18  T = 3569.5177  P =  6.000000E+06  PHASES = VAPOR
      KODE = 2  NTRIAL =   3  T = 145.6940  P = 6.000000E+06  V =  0.00000      Q =  0.00000    
      ITER =    18  T = 3569.5177  P =  6.000000E+06  PHASES = VAPOR
      KODE = 2  NTRIAL =   1  T = 160.4987  P = 6.000000E+06  V =  0.00000      Q =  0.00000    
      ITER =    18  T = 3569.5177  P =  6.000000E+06  PHASES = VAPOR
      KODE = 2  NTRIAL =   1  T = 160.4987  P = 6.000000E+06  V =  0.00000      Q =  0.00000    
      ITER =    18  T = 3569.5177  P =  6.000000E+06  PHASES = VAPOR
      KODE = 2  NTRIAL =   1  T = 160.4987  P = 6.000000E+06  V =  0.00000      Q =  0.00000    
      ITER =    18  T = 3569.5177  P =  6.000000E+06  PHASES = VAPOR
      KODE = 2  NTRIAL =   1  T = 160.4987  P = 6.000000E+06  V =  0.00000      Q =  0.00000    
      ITER =    18  T = 3569.5177  P =  6.000000E+06  PHASES = VAPOR
      KODE = 2  NTRIAL =   1  T = 160.4987  P = 6.000000E+06  V =  0.00000      Q =  0.00000    
      ITER =    18  T = 3569.5177  P =  6.000000E+06  PHASES = VAPOR
      KODE = 2  NTRIAL =   1  T = 160.4987  P = 6.000000E+06  V =  0.00000      Q =  0.00000    
      ITER =    18  T = 3569.5177  P =  6.000000E+06  PHASES = VAPOR
      KODE = 2  NTRIAL =   1  T = 160.4987  P = 6.000000E+06  V =  0.00000      Q =  0.00000    
      ITER =    18  T = 3569.5177  P =  6.000000E+06  PHASES = VAPOR
      KODE = 2  NTRIAL =   1  T = 160.4987  P = 6.000000E+06  V =  0.00000      Q =  0.00000    
      ITER =    18  T = 3569.5177  P =  6.000000E+06  PHASES = VAPOR
      KODE = 2  NTRIAL =   1  T = 160.4987  P = 6.000000E+06  V =  0.00000      Q =  0.00000    
      ITER =    18  T = 3569.5177  P =  6.000000E+06  PHASES = VAPOR
      KODE = 2  NTRIAL =   1  T = 160.4987  P = 6.000000E+06  V =  0.00000      Q =  0.00000    
      ITER =    18  T = 3569.5177  P =  6.000000E+06  PHASES = VAPOR
      KODE = 2  NTRIAL =   3  T = 145.6940  P = 6.000000E+06  V =  0.00000      Q =  0.00000    
      ITER =    18  T = 3569.5177  P =  6.000000E+06  PHASES = VAPOR
      KODE = 2  NTRIAL =   3  T = 145.6940  P = 6.000000E+06  V =  0.00000      Q =  0.00000    
      ITER =    18  T = 3569.5177  P =  6.000000E+06  PHASES = VAPOR
      KODE = 2  NTRIAL =   3  T = 145.6940  P = 6.000000E+06  V =  0.00000      Q =  0.00000    
      ITER =    18  T = 3569.5177  P =  6.000000E+06  PHASES = VAPOR
      KODE = 2  NTRIAL =   3  T = 145.6940  P = 6.000000E+06  V =  0.00000      Q =  0.00000    
      ITER =    18  T = 3569.5177  P =  6.000000E+06  PHASES = VAPOR
      KODE = 2  NTRIAL =   3  T = 145.6940  P = 6.000000E+06  V =  0.00000      Q =  0.00000    
      ITER =    18  T = 3569.5177  P =  6.000000E+06  PHASES = VAPOR
      KODE = 2  NTRIAL =   3  T = 145.6940  P = 6.000000E+06  V =  0.00000      Q =  0.00000    
      ITER =    18  T = 3569.5177  P =  6.000000E+06  PHASES = VAPOR
      KODE = 2  NTRIAL =   3  T = 145.6940  P = 6.000000E+06  V =  0.00000      Q =  0.00000    
      ITER =    18  T = 3569.5177  P =  6.000000E+06  PHASES = VAPOR
      KODE = 2  NTRIAL =   3  T = 145.6940  P = 6.000000E+06  V =  0.00000      Q =  0.00000    
      ITER =    18  T = 3569.5177  P =  6.000000E+06  PHASES = VAPOR
      KODE = 2  NTRIAL =   3  T = 145.6940  P = 6.000000E+06  V =  0.00000      Q =  0.00000    
      ITER =    18  T = 3569.5177  P =  6.000000E+06  PHASES = VAPOR
      KODE = 2  NTRIAL =   3  T = 145.6940  P = 6.000000E+06  V =  0.00000      Q =  0.00000    
      ITER =    18  T = 3569.5177  P =  6.000000E+06  PHASES = VAPOR
      KODE = 2  NTRIAL =   1  T = 160.4987  P = 6.000000E+06  V =  0.00000      Q =  0.00000    
      ITER =    18  T = 3569.5177  P =  6.000000E+06  PHASES = VAPOR
      KODE = 2  NTRIAL =   1  T = 160.4987  P = 6.000000E+06  V =  0.00000      Q =  0.00000    
      ITER =    18  T = 3569.5177  P =  6.000000E+06  PHASES = VAPOR
      KODE = 2  NTRIAL =   1  T = 160.4987  P = 6.000000E+06  V =  0.00000      Q =  0.00000    
      ITER =    18  T = 3569.5177  P =  6.000000E+06  PHASES = VAPOR
      KODE = 2  NTRIAL =   1  T = 160.4987  P = 6.000000E+06  V =  0.00000      Q =  0.00000    
      ITER =    18  T = 3569.5177  P =  6.000000E+06  PHASES = VAPOR
      KODE = 2  NTRIAL =   1  T = 160.4987  P = 6.000000E+06  V =  0.00000      Q =  0.00000    
      ITER =    18  T = 3569.5177  P =  6.000000E+06  PHASES = VAPOR
      KODE = 2  NTRIAL =   1  T = 160.4987  P = 6.000000E+06  V =  0.00000      Q =  0.00000    
      ITER =    18  T = 3569.5177  P =  6.000000E+06  PHASES = VAPOR
      KODE = 2  NTRIAL =   1  T = 160.4987  P = 6.000000E+06  V =  0.00000      Q =  0.00000    
      ITER =    18  T = 3569.5177  P =  6.000000E+06  PHASES = VAPOR
      KODE = 2  NTRIAL =   1  T = 160.4987  P = 6.000000E+06  V =  0.00000      Q =  0.00000    
      ITER =    18  T = 3569.5177  P =  6.000000E+06  PHASES = VAPOR
      KODE = 2  NTRIAL =   1  T = 160.4987  P = 6.000000E+06  V =  0.00000      Q =  0.00000    
      ITER =    18  T = 3569.5177  P =  6.000000E+06  PHASES = VAPOR
      KODE = 2  NTRIAL =   1  T = 160.4987  P = 6.000000E+06  V =  0.00000      Q =  0.00000    
      ITER =    18  T = 3569.5177  P =  6.000000E+06  PHASES = VAPOR
      KODE = 2  NTRIAL =   3  T = 145.7163  P = 6.000000E+06  V =  0.00000      Q =  0.00000    
      ITER =    18  T = 3569.5177  P =  6.000000E+06  PHASES = VAPOR
      KODE = 2  NTRIAL =   3  T = 145.7163  P = 6.000000E+06  V =  0.00000      Q =  0.00000    
      ITER =    18  T = 3569.5177  P =  6.000000E+06  PHASES = VAPOR
      KODE = 2  NTRIAL =   3  T = 145.7163  P = 6.000000E+06  V =  0.00000      Q =  0.00000    
      ITER =    18  T = 3569.5177  P =  6.000000E+06  PHASES = VAPOR
      KODE = 2  NTRIAL =   3  T = 145.7163  P = 6.000000E+06  V =  0.00000      Q =  0.00000    
      ITER =    18  T = 3569.5177  P =  6.000000E+06  PHASES = VAPOR
      KODE = 2  NTRIAL =   3  T = 145.7163  P = 6.000000E+06  V =  0.00000      Q =  0.00000    
      ITER =    18  T = 3569.5177  P =  6.000000E+06  PHASES = VAPOR
      KODE = 2  NTRIAL =   3  T = 145.7163  P = 6.000000E+06  V =  0.00000      Q =  0.00000    
      ITER =    18  T = 3569.5177  P =  6.000000E+06  PHASES = VAPOR
      KODE = 2  NTRIAL =   3  T = 145.7163  P = 6.000000E+06  V =  0.00000      Q =  0.00000    
      ITER =    18  T = 3569.5177  P =  6.000000E+06  PHASES = VAPOR
      KODE = 2  NTRIAL =   3  T = 145.7163  P = 6.000000E+06  V =  0.00000      Q =  0.00000    
      ITER =    18  T = 3569.5177  P =  6.000000E+06  PHASES = VAPOR
      KODE = 2  NTRIAL =   3  T = 145.7163  P = 6.000000E+06  V =  0.00000      Q =  0.00000    
      ITER =    18  T = 3569.5177  P =  6.000000E+06  PHASES = VAPOR
      KODE = 2  NTRIAL =   3  T = 145.7163  P = 6.000000E+06  V =  0.00000      Q =  0.00000    
      ITER =    18  T = 3569.5177  P =  6.000000E+06  PHASES = VAPOR
      KODE = 2  NTRIAL =   1  T = 160.4843  P = 5.999998E+06  V =  0.00000      Q =  0.00000    
      ITER =    18  T = 3569.5177  P =  5.999998E+06  PHASES = VAPOR
      KODE = 2  NTRIAL =   1  T = 160.4843  P = 5.999998E+06  V =  0.00000      Q =  0.00000    
      ITER =    18  T = 3569.5177  P =  5.999998E+06  PHASES = VAPOR
      KODE = 2  NTRIAL =   1  T = 160.4843  P = 5.999998E+06  V =  0.00000      Q =  0.00000    
      ITER =    18  T = 3569.5177  P =  5.999998E+06  PHASES = VAPOR
      KODE = 2  NTRIAL =   1  T = 160.4843  P = 5.999998E+06  V =  0.00000      Q =  0.00000    
      ITER =    18  T = 3569.5177  P =  5.999998E+06  PHASES = VAPOR
      KODE = 2  NTRIAL =   1  T = 160.4843  P = 5.999998E+06  V =  0.00000      Q =  0.00000    
      ITER =    18  T = 3569.5177  P =  5.999998E+06  PHASES = VAPOR
      KODE = 2  NTRIAL =   1  T = 160.4843  P = 5.999998E+06  V =  0.00000      Q =  0.00000    
      ITER =    18  T = 3569.5177  P =  5.999998E+06  PHASES = VAPOR
      KODE = 2  NTRIAL =   1  T = 160.4843  P = 5.999998E+06  V =  0.00000      Q =  0.00000    
      ITER =    18  T = 3569.5177  P =  5.999998E+06  PHASES = VAPOR
      KODE = 2  NTRIAL =   1  T = 160.4843  P = 5.999998E+06  V =  0.00000      Q =  0.00000    
      ITER =    18  T = 3569.5177  P =  5.999998E+06  PHASES = VAPOR
      KODE = 2  NTRIAL =   1  T = 160.4843  P = 5.999998E+06  V =  0.00000      Q =  0.00000    
      ITER =    18  T = 3569.5177  P =  5.999998E+06  PHASES = VAPOR
      KODE = 2  NTRIAL =   1  T = 160.4843  P = 5.999998E+06  V =  0.00000      Q =  0.00000    
      ITER =    18  T = 3569.5177  P =  5.999998E+06  PHASES = VAPOR
      KODE = 2  NTRIAL =   3  T = 145.6943  P = 5.999998E+06  V =  0.00000      Q =  0.00000    
      ITER =    18  T = 3569.5177  P =  5.999998E+06  PHASES = VAPOR
      KODE = 2  NTRIAL =   3  T = 145.6943  P = 5.999998E+06  V =  0.00000      Q =  0.00000    
      ITER =    18  T = 3569.5177  P =  5.999998E+06  PHASES = VAPOR
      KODE = 2  NTRIAL =   3  T = 145.6943  P = 5.999998E+06  V =  0.00000      Q =  0.00000    
      ITER =    18  T = 3569.5177  P =  5.999998E+06  PHASES = VAPOR
      KODE = 2  NTRIAL =   3  T = 145.6943  P = 5.999998E+06  V =  0.00000      Q =  0.00000    
      ITER =    18  T = 3569.5177  P =  5.999998E+06  PHASES = VAPOR
      KODE = 2  NTRIAL =   3  T = 145.6943  P = 5.999998E+06  V =  0.00000      Q =  0.00000    
      ITER =    18  T = 3569.5177  P =  5.999998E+06  PHASES = VAPOR
      KODE = 2  NTRIAL =   3  T = 145.6943  P = 5.999998E+06  V =  0.00000      Q =  0.00000    
      ITER =    18  T = 3569.5177  P =  5.999998E+06  PHASES = VAPOR
      KODE = 2  NTRIAL =   3  T = 145.6943  P = 5.999998E+06  V =  0.00000      Q =  0.00000    
      ITER =    18  T = 3569.5177  P =  5.999998E+06  PHASES = VAPOR
      KODE = 2  NTRIAL =   3  T = 145.6943  P = 5.999998E+06  V =  0.00000      Q =  0.00000    
      ITER =    18  T = 3569.5177  P =  5.999998E+06  PHASES = VAPOR
      KODE = 2  NTRIAL =   3  T = 145.6943  P = 5.999998E+06  V =  0.00000      Q =  0.00000    
      ITER =    18  T = 3569.5177  P =  5.999998E+06  PHASES = VAPOR
      KODE = 2  NTRIAL =   3  T = 145.6943  P = 5.999998E+06  V =  0.00000      Q =  0.00000    
      ITER =    18  T = 3569.5177  P =  5.999998E+06  PHASES = VAPOR
      KODE = 2  NTRIAL =   1  T = 160.4985  P = 5.999998E+06  V =  0.00000      Q =  0.00000    
      ITER =    18  T = 3569.5177  P =  5.999998E+06  PHASES = VAPOR
      KODE = 2  NTRIAL =   1  T = 160.4985  P = 5.999998E+06  V =  0.00000      Q =  0.00000    
      ITER =    18  T = 3569.5177  P =  5.999998E+06  PHASES = VAPOR
      KODE = 2  NTRIAL =   1  T = 160.4985  P = 5.999998E+06  V =  0.00000      Q =  0.00000    
      ITER =    18  T = 3569.5177  P =  5.999998E+06  PHASES = VAPOR
      KODE = 2  NTRIAL =   1  T = 160.4985  P = 5.999998E+06  V =  0.00000      Q =  0.00000    
      ITER =    18  T = 3569.5177  P =  5.999998E+06  PHASES = VAPOR
      KODE = 2  NTRIAL =   1  T = 160.4985  P = 5.999998E+06  V =  0.00000      Q =  0.00000    
      ITER =    18  T = 3569.5177  P =  5.999998E+06  PHASES = VAPOR
      KODE = 2  NTRIAL =   1  T = 160.4985  P = 5.999998E+06  V =  0.00000      Q =  0.00000    
      ITER =    18  T = 3569.5177  P =  5.999998E+06  PHASES = VAPOR
      KODE = 2  NTRIAL =   1  T = 160.4985  P = 5.999998E+06  V =  0.00000      Q =  0.00000    
      ITER =    18  T = 3569.5177  P =  5.999998E+06  PHASES = VAPOR
      KODE = 2  NTRIAL =   1  T = 160.4985  P = 5.999998E+06  V =  0.00000      Q =  0.00000    
      ITER =    18  T = 3569.5177  P =  5.999998E+06  PHASES = VAPOR
      KODE = 2  NTRIAL =   1  T = 160.4985  P = 5.999998E+06  V =  0.00000      Q =  0.00000    
      ITER =    18  T = 3569.5177  P =  5.999998E+06  PHASES = VAPOR
      KODE = 2  NTRIAL =   1  T = 160.4985  P = 5.999998E+06  V =  0.00000      Q =  0.00000    
      ITER =    18  T = 3569.5177  P =  5.999998E+06  PHASES = VAPOR
      KODE = 2  NTRIAL =   3  T = 145.6940  P = 5.999998E+06  V =  0.00000      Q =  0.00000    
      ITER =    18  T = 3569.5177  P =  5.999998E+06  PHASES = VAPOR
      KODE = 2  NTRIAL =   3  T = 145.6940  P = 5.999998E+06  V =  0.00000      Q =  0.00000    
      ITER =    18  T = 3569.5177  P =  5.999998E+06  PHASES = VAPOR
      KODE = 2  NTRIAL =   3  T = 145.6940  P = 5.999998E+06  V =  0.00000      Q =  0.00000    
      ITER =    18  T = 3569.5177  P =  5.999998E+06  PHASES = VAPOR
      KODE = 2  NTRIAL =   3  T = 145.6940  P = 5.999998E+06  V =  0.00000      Q =  0.00000    
      ITER =    18  T = 3569.5177  P =  5.999998E+06  PHASES = VAPOR
      KODE = 2  NTRIAL =   3  T = 145.6940  P = 5.999998E+06  V =  0.00000      Q =  0.00000    
      ITER =    18  T = 3569.5177  P =  5.999998E+06  PHASES = VAPOR
      KODE = 2  NTRIAL =   3  T = 145.6940  P = 5.999998E+06  V =  0.00000      Q =  0.00000    
      ITER =    18  T = 3569.5177  P =  5.999998E+06  PHASES = VAPOR
      KODE = 2  NTRIAL =   3  T = 145.6940  P = 5.999998E+06  V =  0.00000      Q =  0.00000    
      ITER =    18  T = 3569.5177  P =  5.999998E+06  PHASES = VAPOR
      KODE = 2  NTRIAL =   3  T = 145.6940  P = 5.999998E+06  V =  0.00000      Q =  0.00000    
      ITER =    18  T = 3569.5177  P =  5.999998E+06  PHASES = VAPOR
      KODE = 2  NTRIAL =   3  T = 145.6940  P = 5.999998E+06  V =  0.00000      Q =  0.00000    
      ITER =    18  T = 3569.5177  P =  5.999998E+06  PHASES = VAPOR
      KODE = 2  NTRIAL =   3  T = 145.6940  P = 5.999998E+06  V =  0.00000      Q =  0.00000    
      ITER =    18  T = 3569.5177  P =  5.999998E+06  PHASES = VAPOR
      KODE = 2  NTRIAL =   1  T = 160.4987  P = 5.999998E+06  V =  0.00000      Q =  0.00000    
      ITER =    18  T = 3569.5177  P =  5.999998E+06  PHASES = VAPOR
      KODE = 2  NTRIAL =   1  T = 160.4987  P = 5.999998E+06  V =  0.00000      Q =  0.00000    
      ITER =    18  T = 3569.5177  P =  5.999998E+06  PHASES = VAPOR
      KODE = 2  NTRIAL =   1  T = 160.4987  P = 5.999998E+06  V =  0.00000      Q =  0.00000    
      ITER =    18  T = 3569.5177  P =  5.999998E+06  PHASES = VAPOR
      KODE = 2  NTRIAL =   1  T = 160.4987  P = 5.999998E+06  V =  0.00000      Q =  0.00000    
      ITER =    18  T = 3569.5177  P =  5.999998E+06  PHASES = VAPOR
      KODE = 2  NTRIAL =   1  T = 160.4987  P = 5.999998E+06  V =  0.00000      Q =  0.00000    
      ITER =    18  T = 3569.5177  P =  5.999998E+06  PHASES = VAPOR
      KODE = 2  NTRIAL =   1  T = 160.4987  P = 5.999998E+06  V =  0.00000      Q =  0.00000    
      ITER =    18  T = 3569.5177  P =  5.999998E+06  PHASES = VAPOR
      KODE = 2  NTRIAL =   1  T = 160.4987  P = 5.999998E+06  V =  0.00000      Q =  0.00000    
      ITER =    18  T = 3569.5177  P =  5.999998E+06  PHASES = VAPOR
      KODE = 2  NTRIAL =   1  T = 160.4987  P = 5.999998E+06  V =  0.00000      Q =  0.00000    
      ITER =    18  T = 3569.5177  P =  5.999998E+06  PHASES = VAPOR
      KODE = 2  NTRIAL =   1  T = 160.4987  P = 5.999998E+06  V =  0.00000      Q =  0.00000    
      ITER =    18  T = 3569.5177  P =  5.999998E+06  PHASES = VAPOR
      KODE = 2  NTRIAL =   1  T = 160.4987  P = 5.999998E+06  V =  0.00000      Q =  0.00000    
      ITER =    18  T = 3569.5177  P =  5.999998E+06  PHASES = VAPOR
      KODE = 2  NTRIAL =   3  T = 145.6940  P = 5.999998E+06  V =  0.00000      Q =  0.00000    
      ITER =    18  T = 3569.5177  P =  5.999998E+06  PHASES = VAPOR
      KODE = 2  NTRIAL =   3  T = 145.6940  P = 5.999998E+06  V =  0.00000      Q =  0.00000    
      ITER =    18  T = 3569.5177  P =  5.999998E+06  PHASES = VAPOR
      KODE = 2  NTRIAL =   3  T = 145.6940  P = 5.999998E+06  V =  0.00000      Q =  0.00000    
      ITER =    18  T = 3569.5177  P =  5.999998E+06  PHASES = VAPOR
      KODE = 2  NTRIAL =   3  T = 145.6940  P = 5.999998E+06  V =  0.00000      Q =  0.00000    
      ITER =    18  T = 3569.5177  P =  5.999998E+06  PHASES = VAPOR
      KODE = 2  NTRIAL =   3  T = 145.6940  P = 5.999998E+06  V =  0.00000      Q =  0.00000    
      ITER =    18  T = 3569.5177  P =  5.999998E+06  PHASES = VAPOR
      KODE = 2  NTRIAL =   3  T = 145.6940  P = 5.999998E+06  V =  0.00000      Q =  0.00000    
      ITER =    18  T = 3569.5177  P =  5.999998E+06  PHASES = VAPOR
      KODE = 2  NTRIAL =   3  T = 145.6940  P = 5.999998E+06  V =  0.00000      Q =  0.00000    
      ITER =    18  T = 3569.5177  P =  5.999998E+06  PHASES = VAPOR
      KODE = 2  NTRIAL =   3  T = 145.6940  P = 5.999998E+06  V =  0.00000      Q =  0.00000    
      ITER =    18  T = 3569.5177  P =  5.999998E+06  PHASES = VAPOR
      KODE = 2  NTRIAL =   3  T = 145.6940  P = 5.999998E+06  V =  0.00000      Q =  0.00000    
      ITER =    18  T = 3569.5177  P =  5.999998E+06  PHASES = VAPOR
      KODE = 2  NTRIAL =   3  T = 145.6940  P = 5.999998E+06  V =  0.00000      Q =  0.00000    
      ITER =    18  T = 3569.5177  P =  5.999998E+06  PHASES = VAPOR
      KODE = 2  NTRIAL =   1  T = 160.4987  P = 5.999997E+06  V =  0.00000      Q =  0.00000    
      ITER =    18  T = 3569.5177  P =  5.999997E+06  PHASES = VAPOR
      KODE = 2  NTRIAL =   1  T = 160.4987  P = 5.999997E+06  V =  0.00000      Q =  0.00000    
      ITER =    18  T = 3569.5177  P =  5.999997E+06  PHASES = VAPOR
      KODE = 2  NTRIAL =   1  T = 160.4987  P = 5.999997E+06  V =  0.00000      Q =  0.00000    
      ITER =    18  T = 3569.5177  P =  5.999997E+06  PHASES = VAPOR
      KODE = 2  NTRIAL =   1  T = 160.4987  P = 5.999997E+06  V =  0.00000      Q =  0.00000    
      ITER =    18  T = 3569.5177  P =  5.999997E+06  PHASES = VAPOR
      KODE = 2  NTRIAL =   1  T = 160.4987  P = 5.999997E+06  V =  0.00000      Q =  0.00000    
      ITER =    18  T = 3569.5177  P =  5.999997E+06  PHASES = VAPOR
      KODE = 2  NTRIAL =   1  T = 160.4987  P = 5.999997E+06  V =  0.00000      Q =  0.00000    
      ITER =    18  T = 3569.5177  P =  5.999997E+06  PHASES = VAPOR
      KODE = 2  NTRIAL =   1  T = 160.4987  P = 5.999997E+06  V =  0.00000      Q =  0.00000    
      ITER =    18  T = 3569.5177  P =  5.999997E+06  PHASES = VAPOR
      KODE = 2  NTRIAL =   1  T = 160.4987  P = 5.999997E+06  V =  0.00000      Q =  0.00000    
      ITER =    18  T = 3569.5177  P =  5.999997E+06  PHASES = VAPOR
      KODE = 2  NTRIAL =   1  T = 160.4987  P = 5.999997E+06  V =  0.00000      Q =  0.00000    
      ITER =    18  T = 3569.5177  P =  5.999997E+06  PHASES = VAPOR
      KODE = 2  NTRIAL =   1  T = 160.4987  P = 5.999997E+06  V =  0.00000      Q =  0.00000    
      ITER =    18  T = 3569.5177  P =  5.999997E+06  PHASES = VAPOR
      KODE = 2  NTRIAL =   3  T = 145.6940  P = 5.999997E+06  V =  0.00000      Q =  0.00000    
      ITER =    18  T = 3569.5177  P =  5.999997E+06  PHASES = VAPOR
      KODE = 2  NTRIAL =   3  T = 145.6940  P = 5.999997E+06  V =  0.00000      Q =  0.00000    
      ITER =    18  T = 3569.5177  P =  5.999997E+06  PHASES = VAPOR
      KODE = 2  NTRIAL =   3  T = 145.6940  P = 5.999997E+06  V =  0.00000      Q =  0.00000    
      ITER =    18  T = 3569.5177  P =  5.999997E+06  PHASES = VAPOR
      KODE = 2  NTRIAL =   3  T = 145.6940  P = 5.999997E+06  V =  0.00000      Q =  0.00000    
      ITER =    18  T = 3569.5177  P =  5.999997E+06  PHASES = VAPOR
      KODE = 2  NTRIAL =   3  T = 145.6940  P = 5.999997E+06  V =  0.00000      Q =  0.00000    
      ITER =    18  T = 3569.5177  P =  5.999997E+06  PHASES = VAPOR
      KODE = 2  NTRIAL =   3  T = 145.6940  P = 5.999997E+06  V =  0.00000      Q =  0.00000    
      ITER =    18  T = 3569.5177  P =  5.999997E+06  PHASES = VAPOR
      KODE = 2  NTRIAL =   3  T = 145.6940  P = 5.999997E+06  V =  0.00000      Q =  0.00000    
      ITER =    18  T = 3569.5177  P =  5.999997E+06  PHASES = VAPOR
      KODE = 2  NTRIAL =   3  T = 145.6940  P = 5.999997E+06  V =  0.00000      Q =  0.00000    
      ITER =    18  T = 3569.5177  P =  5.999997E+06  PHASES = VAPOR
      KODE = 2  NTRIAL =   3  T = 145.6940  P = 5.999997E+06  V =  0.00000      Q =  0.00000    
      ITER =    18  T = 3569.5177  P =  5.999997E+06  PHASES = VAPOR
      KODE = 2  NTRIAL =   3  T = 145.6940  P = 5.999997E+06  V =  0.00000      Q =  0.00000    
      ITER =    18  T = 3569.5177  P =  5.999997E+06  PHASES = VAPOR
      KODE = 2  NTRIAL =   1  T = 160.4987  P = 5.999997E+06  V =  0.00000      Q =  0.00000    
      ITER =    18  T = 3569.5177  P =  5.999997E+06  PHASES = VAPOR
      KODE = 2  NTRIAL =   1  T = 160.4987  P = 5.999997E+06  V =  0.00000      Q =  0.00000    
      ITER =    18  T = 3569.5177  P =  5.999997E+06  PHASES = VAPOR
      KODE = 2  NTRIAL =   1  T = 160.4987  P = 5.999997E+06  V =  0.00000      Q =  0.00000    
      ITER =    18  T = 3569.5177  P =  5.999997E+06  PHASES = VAPOR
      KODE = 2  NTRIAL =   1  T = 160.4987  P = 5.999997E+06  V =  0.00000      Q =  0.00000    
      ITER =    18  T = 3569.5177  P =  5.999997E+06  PHASES = VAPOR
      KODE = 2  NTRIAL =   1  T = 160.4987  P = 5.999997E+06  V =  0.00000      Q =  0.00000    
      ITER =    18  T = 3569.5177  P =  5.999997E+06  PHASES = VAPOR
      KODE = 2  NTRIAL =   1  T = 160.4987  P = 5.999997E+06  V =  0.00000      Q =  0.00000    
      ITER =    18  T = 3569.5177  P =  5.999997E+06  PHASES = VAPOR
      KODE = 2  NTRIAL =   1  T = 160.4987  P = 5.999997E+06  V =  0.00000      Q =  0.00000    
      ITER =    18  T = 3569.5177  P =  5.999997E+06  PHASES = VAPOR
      KODE = 2  NTRIAL =   1  T = 160.4987  P = 5.999997E+06  V =  0.00000      Q =  0.00000    
      ITER =    18  T = 3569.5177  P =  5.999997E+06  PHASES = VAPOR
      KODE = 2  NTRIAL =   1  T = 160.4987  P = 5.999997E+06  V =  0.00000      Q =  0.00000    
      ITER =    18  T = 3569.5177  P =  5.999997E+06  PHASES = VAPOR
      KODE = 2  NTRIAL =   1  T = 160.4987  P = 5.999997E+06  V =  0.00000      Q =  0.00000    
      ITER =    18  T = 3569.5177  P =  5.999997E+06  PHASES = VAPOR
      KODE = 2  NTRIAL =   3  T = 145.6940  P = 5.999996E+06  V =  0.00000      Q =  0.00000    
      ITER =    18  T = 3569.5177  P =  5.999996E+06  PHASES = VAPOR
      KODE = 2  NTRIAL =   3  T = 145.6940  P = 5.999996E+06  V =  0.00000      Q =  0.00000    
      ITER =    18  T = 3569.5177  P =  5.999996E+06  PHASES = VAPOR
      KODE = 2  NTRIAL =   3  T = 145.6940  P = 5.999996E+06  V =  0.00000      Q =  0.00000    
      ITER =    18  T = 3569.5177  P =  5.999996E+06  PHASES = VAPOR
      KODE = 2  NTRIAL =   3  T = 145.6940  P = 5.999996E+06  V =  0.00000      Q =  0.00000    
      ITER =    18  T = 3569.5177  P =  5.999996E+06  PHASES = VAPOR
      KODE = 2  NTRIAL =   3  T = 145.6940  P = 5.999996E+06  V =  0.00000      Q =  0.00000    
      ITER =    18  T = 3569.5177  P =  5.999996E+06  PHASES = VAPOR
      KODE = 2  NTRIAL =   3  T = 145.6940  P = 5.999996E+06  V =  0.00000      Q =  0.00000    
      ITER =    18  T = 3569.5177  P =  5.999996E+06  PHASES = VAPOR
      KODE = 2  NTRIAL =   3  T = 145.6940  P = 5.999996E+06  V =  0.00000      Q =  0.00000    
      ITER =    18  T = 3569.5177  P =  5.999996E+06  PHASES = VAPOR
      KODE = 2  NTRIAL =   3  T = 145.6940  P = 5.999996E+06  V =  0.00000      Q =  0.00000    
      ITER =    18  T = 3569.5177  P =  5.999996E+06  PHASES = VAPOR
      KODE = 2  NTRIAL =   3  T = 145.6940  P = 5.999996E+06  V =  0.00000      Q =  0.00000    
      ITER =    18  T = 3569.5177  P =  5.999996E+06  PHASES = VAPOR
      KODE = 2  NTRIAL =   3  T = 145.6940  P = 5.999996E+06  V =  0.00000      Q =  0.00000    
      ITER =    18  T = 3569.5177  P =  5.999996E+06  PHASES = VAPOR
      KODE = 2  NTRIAL =   1  T = 160.4987  P = 5.999996E+06  V =  0.00000      Q =  0.00000    
      ITER =    18  T = 3569.5177  P =  5.999996E+06  PHASES = VAPOR
      KODE = 2  NTRIAL =   1  T = 160.4987  P = 5.999996E+06  V =  0.00000      Q =  0.00000    
      ITER =    18  T = 3569.5177  P =  5.999996E+06  PHASES = VAPOR
      KODE = 2  NTRIAL =   1  T = 160.4987  P = 5.999996E+06  V =  0.00000      Q =  0.00000    
      ITER =    18  T = 3569.5177  P =  5.999996E+06  PHASES = VAPOR
      KODE = 2  NTRIAL =   1  T = 160.4987  P = 5.999996E+06  V =  0.00000      Q =  0.00000    
      ITER =    18  T = 3569.5177  P =  5.999996E+06  PHASES = VAPOR
      KODE = 2  NTRIAL =   1  T = 160.4987  P = 5.999996E+06  V =  0.00000      Q =  0.00000    
      ITER =    18  T = 3569.5177  P =  5.999996E+06  PHASES = VAPOR
      KODE = 2  NTRIAL =   1  T = 160.4987  P = 5.999996E+06  V =  0.00000      Q =  0.00000    
      ITER =    18  T = 3569.5177  P =  5.999996E+06  PHASES = VAPOR
      KODE = 2  NTRIAL =   1  T = 160.4987  P = 5.999996E+06  V =  0.00000      Q =  0.00000    
      ITER =    18  T = 3569.5177  P =  5.999996E+06  PHASES = VAPOR
      KODE = 2  NTRIAL =   1  T = 160.4987  P = 5.999996E+06  V =  0.00000      Q =  0.00000    
      ITER =    18  T = 3569.5177  P =  5.999996E+06  PHASES = VAPOR
      KODE = 2  NTRIAL =   1  T = 160.4987  P = 5.999996E+06  V =  0.00000      Q =  0.00000    
      ITER =    18  T = 3569.5177  P =  5.999996E+06  PHASES = VAPOR
      KODE = 2  NTRIAL =   1  T = 160.4987  P = 5.999996E+06  V =  0.00000      Q =  0.00000    
      ITER =    18  T = 3569.5177  P =  5.999996E+06  PHASES = VAPOR
      KODE = 2  NTRIAL =   3  T = 145.6940  P = 5.999995E+06  V =  0.00000      Q =  0.00000    
      ITER =    18  T = 3569.5177  P =  5.999995E+06  PHASES = VAPOR
      KODE = 2  NTRIAL =   3  T = 145.6940  P = 5.999995E+06  V =  0.00000      Q =  0.00000    
      ITER =    18  T = 3569.5177  P =  5.999995E+06  PHASES = VAPOR
      KODE = 2  NTRIAL =   3  T = 145.6940  P = 5.999995E+06  V =  0.00000      Q =  0.00000    
      ITER =    18  T = 3569.5177  P =  5.999995E+06  PHASES = VAPOR
      KODE = 2  NTRIAL =   3  T = 145.6940  P = 5.999995E+06  V =  0.00000      Q =  0.00000    
      ITER =    18  T = 3569.5177  P =  5.999995E+06  PHASES = VAPOR
      KODE = 2  NTRIAL =   3  T = 145.6940  P = 5.999995E+06  V =  0.00000      Q =  0.00000    
      ITER =    18  T = 3569.5177  P =  5.999995E+06  PHASES = VAPOR
      KODE = 2  NTRIAL =   3  T = 145.6940  P = 5.999995E+06  V =  0.00000      Q =  0.00000    
      ITER =    18  T = 3569.5177  P =  5.999995E+06  PHASES = VAPOR
      KODE = 2  NTRIAL =   3  T = 145.6940  P = 5.999995E+06  V =  0.00000      Q =  0.00000    
      ITER =    18  T = 3569.5177  P =  5.999995E+06  PHASES = VAPOR
      KODE = 2  NTRIAL =   3  T = 145.6940  P = 5.999995E+06  V =  0.00000      Q =  0.00000    
      ITER =    18  T = 3569.5177  P =  5.999995E+06  PHASES = VAPOR
      KODE = 2  NTRIAL =   3  T = 145.6940  P = 5.999995E+06  V =  0.00000      Q =  0.00000    
      ITER =    18  T = 3569.5177  P =  5.999995E+06  PHASES = VAPOR
      KODE = 2  NTRIAL =   3  T = 145.6940  P = 5.999995E+06  V =  0.00000      Q =  0.00000    
      ITER =    18  T = 3569.5177  P =  5.999995E+06  PHASES = VAPOR
      KODE = 2  NTRIAL =   1  T = 160.4987  P = 5.999994E+06  V =  0.00000      Q =  0.00000    
      ITER =    18  T = 3569.5177  P =  5.999994E+06  PHASES = VAPOR
      KODE = 2  NTRIAL =   1  T = 160.4987  P = 5.999994E+06  V =  0.00000      Q =  0.00000    
      ITER =    18  T = 3569.5177  P =  5.999994E+06  PHASES = VAPOR
      KODE = 2  NTRIAL =   1  T = 160.4987  P = 5.999994E+06  V =  0.00000      Q =  0.00000    
      ITER =    18  T = 3569.5177  P =  5.999994E+06  PHASES = VAPOR
      KODE = 2  NTRIAL =   1  T = 160.4987  P = 5.999994E+06  V =  0.00000      Q =  0.00000    
      ITER =    18  T = 3569.5177  P =  5.999994E+06  PHASES = VAPOR
      KODE = 2  NTRIAL =   1  T = 160.4987  P = 5.999994E+06  V =  0.00000      Q =  0.00000    
      ITER =    18  T = 3569.5177  P =  5.999994E+06  PHASES = VAPOR
      KODE = 2  NTRIAL =   1  T = 160.4987  P = 5.999994E+06  V =  0.00000      Q =  0.00000    
      ITER =    18  T = 3569.5177  P =  5.999994E+06  PHASES = VAPOR
      KODE = 2  NTRIAL =   1  T = 160.4987  P = 5.999994E+06  V =  0.00000      Q =  0.00000    
      ITER =    18  T = 3569.5177  P =  5.999994E+06  PHASES = VAPOR
      KODE = 2  NTRIAL =   1  T = 160.4987  P = 5.999994E+06  V =  0.00000      Q =  0.00000    
      ITER =    18  T = 3569.5177  P =  5.999994E+06  PHASES = VAPOR
      KODE = 2  NTRIAL =   1  T = 160.4987  P = 5.999994E+06  V =  0.00000      Q =  0.00000    
      ITER =    18  T = 3569.5177  P =  5.999994E+06  PHASES = VAPOR
      KODE = 2  NTRIAL =   1  T = 160.4987  P = 5.999994E+06  V =  0.00000      Q =  0.00000    
      ITER =    18  T = 3569.5177  P =  5.999994E+06  PHASES = VAPOR
      KODE = 2  NTRIAL =   3  T = 145.6940  P = 5.999994E+06  V =  0.00000      Q =  0.00000    
      ITER =    18  T = 3569.5177  P =  5.999994E+06  PHASES = VAPOR
      KODE = 2  NTRIAL =   3  T = 145.6940  P = 5.999994E+06  V =  0.00000      Q =  0.00000    
      ITER =    18  T = 3569.5177  P =  5.999994E+06  PHASES = VAPOR
      KODE = 2  NTRIAL =   3  T = 145.6940  P = 5.999994E+06  V =  0.00000      Q =  0.00000    
      ITER =    18  T = 3569.5177  P =  5.999994E+06  PHASES = VAPOR
      KODE = 2  NTRIAL =   3  T = 145.6940  P = 5.999994E+06  V =  0.00000      Q =  0.00000    
      ITER =    18  T = 3569.5177  P =  5.999994E+06  PHASES = VAPOR
      KODE = 2  NTRIAL =   3  T = 145.6940  P = 5.999994E+06  V =  0.00000      Q =  0.00000    
      ITER =    18  T = 3569.5177  P =  5.999994E+06  PHASES = VAPOR
      KODE = 2  NTRIAL =   3  T = 145.6940  P = 5.999994E+06  V =  0.00000      Q =  0.00000    
      ITER =    18  T = 3569.5177  P =  5.999994E+06  PHASES = VAPOR
      KODE = 2  NTRIAL =   3  T = 145.6940  P = 5.999994E+06  V =  0.00000      Q =  0.00000    
      ITER =    18  T = 3569.5177  P =  5.999994E+06  PHASES = VAPOR
      KODE = 2  NTRIAL =   3  T = 145.6940  P = 5.999994E+06  V =  0.00000      Q =  0.00000    
      ITER =    18  T = 3569.5177  P =  5.999994E+06  PHASES = VAPOR
      KODE = 2  NTRIAL =   3  T = 145.6940  P = 5.999994E+06  V =  0.00000      Q =  0.00000    
      ITER =    18  T = 3569.5177  P =  5.999994E+06  PHASES = VAPOR
      KODE = 2  NTRIAL =   3  T = 145.6940  P = 5.999994E+06  V =  0.00000      Q =  0.00000    
      ITER =    18  T = 3569.5177  P =  5.999994E+06  PHASES = VAPOR
      KODE = 2  NTRIAL =   1  T = 160.4987  P = 5.999993E+06  V =  0.00000      Q =  0.00000    
      ITER =    18  T = 3569.5177  P =  5.999993E+06  PHASES = VAPOR
      KODE = 2  NTRIAL =   1  T = 160.4987  P = 5.999993E+06  V =  0.00000      Q =  0.00000    
      ITER =    18  T = 3569.5177  P =  5.999993E+06  PHASES = VAPOR
      KODE = 2  NTRIAL =   1  T = 160.4987  P = 5.999993E+06  V =  0.00000      Q =  0.00000    
      ITER =    18  T = 3569.5177  P =  5.999993E+06  PHASES = VAPOR
      KODE = 2  NTRIAL =   1  T = 160.4987  P = 5.999993E+06  V =  0.00000      Q =  0.00000    
      ITER =    18  T = 3569.5177  P =  5.999993E+06  PHASES = VAPOR
      KODE = 2  NTRIAL =   1  T = 160.4987  P = 5.999993E+06  V =  0.00000      Q =  0.00000    
      ITER =    18  T = 3569.5177  P =  5.999993E+06  PHASES = VAPOR
      KODE = 2  NTRIAL =   1  T = 160.4987  P = 5.999993E+06  V =  0.00000      Q =  0.00000    
      ITER =    18  T = 3569.5177  P =  5.999993E+06  PHASES = VAPOR
      KODE = 2  NTRIAL =   1  T = 160.4987  P = 5.999993E+06  V =  0.00000      Q =  0.00000    
      ITER =    18  T = 3569.5177  P =  5.999993E+06  PHASES = VAPOR
      KODE = 2  NTRIAL =   1  T = 160.4987  P = 5.999993E+06  V =  0.00000      Q =  0.00000    
      ITER =    18  T = 3569.5177  P =  5.999993E+06  PHASES = VAPOR
      KODE = 2  NTRIAL =   1  T = 160.4987  P = 5.999993E+06  V =  0.00000      Q =  0.00000    
      ITER =    18  T = 3569.5177  P =  5.999993E+06  PHASES = VAPOR
      KODE = 2  NTRIAL =   1  T = 160.4987  P = 5.999993E+06  V =  0.00000      Q =  0.00000    
      ITER =    18  T = 3569.5177  P =  5.999993E+06  PHASES = VAPOR
      KODE = 2  NTRIAL =   3  T = 145.6940  P = 5.999992E+06  V =  0.00000      Q =  0.00000    
      ITER =    18  T = 3569.5177  P =  5.999992E+06  PHASES = VAPOR
      KODE = 2  NTRIAL =   3  T = 145.6940  P = 5.999992E+06  V =  0.00000      Q =  0.00000    
[...]
      ITER =    18  T = 3569.5177  P =  6.000000E+06  PHASES = VAPOR
      KODE = 2  NTRIAL =   1  T = 160.4987  P = 6.000000E+06  V =  0.00000      Q =  0.00000    
      ITER =    18  T = 3569.5177  P =  6.000000E+06  PHASES = VAPOR
      KODE = 2  NTRIAL =   1  T = 160.4987  P = 6.000000E+06  V =  0.00000      Q =  0.00000    
      ITER =    18  T = 3569.5177  P =  6.000000E+06  PHASES = VAPOR
      KODE = 2  NTRIAL =   1  T = 160.4987  P = 6.000000E+06  V =  0.00000      Q =  0.00000    
      ITER =    18  T = 3569.5177  P =  6.000000E+06  PHASES = VAPOR
      KODE = 2  NTRIAL =   1  T = 160.4987  P = 6.000000E+06  V =  0.00000      Q =  0.00000    
      ITER =    18  T = 3569.5177  P =  6.000000E+06  PHASES = VAPOR
      KODE = 2  NTRIAL =   1  T = 160.4987  P = 6.000000E+06  V =  0.00000      Q =  0.00000    
      ITER =    18  T = 3569.5177  P =  6.000000E+06  PHASES = VAPOR
      KODE = 2  NTRIAL =   1  T = 160.4987  P = 6.000000E+06  V =  0.00000      Q =  0.00000    
      ITER =    18  T = 3569.5177  P =  6.000000E+06  PHASES = VAPOR
      KODE = 2  NTRIAL =   1  T = 160.4987  P = 6.000000E+06  V =  0.00000      Q =  0.00000    
      ITER =    18  T = 3569.5177  P =  6.000000E+06  PHASES = VAPOR
      KODE = 2  NTRIAL =   1  T = 160.4987  P = 6.000000E+06  V =  0.00000      Q =  0.00000    
      ITER =    18  T = 3569.5177  P =  6.000000E+06  PHASES = VAPOR
      KODE = 2  NTRIAL =   1  T = 160.4987  P = 6.000000E+06  V =  0.00000      Q =  0.00000    
      ITER =    18  T = 3569.5177  P =  6.000000E+06  PHASES = VAPOR
      KODE = 2  NTRIAL =   1  T = 160.4987  P = 6.000000E+06  V =  0.00000      Q =  0.00000    
      ITER =    18  T = 3569.5177  P =  6.000000E+06  PHASES = VAPOR
      KODE = 2  NTRIAL =   3  T = 145.6940  P = 6.000000E+06  V =  0.00000      Q =  0.00000    
      ITER =    18  T = 3569.5177  P =  6.000000E+06  PHASES = VAPOR
      KODE = 2  NTRIAL =   3  T = 145.6940  P = 6.000000E+06  V =  0.00000      Q =  0.00000    
      ITER =    18  T = 3569.5177  P =  6.000000E+06  PHASES = VAPOR
      KODE = 2  NTRIAL =   3  T = 145.6940  P = 6.000000E+06  V =  0.00000      Q =  0.00000    
      ITER =    18  T = 3569.5177  P =  6.000000E+06  PHASES = VAPOR
      KODE = 2  NTRIAL =   3  T = 145.6940  P = 6.000000E+06  V =  0.00000      Q =  0.00000    
      ITER =    18  T = 3569.5177  P =  6.000000E+06  PHASES = VAPOR
      KODE = 2  NTRIAL =   3  T = 145.6940  P = 6.000000E+06  V =  0.00000      Q =  0.00000    
      ITER =    18  T = 3569.5177  P =  6.000000E+06  PHASES = VAPOR
      KODE = 2  NTRIAL =   3  T = 145.6940  P = 6.000000E+06  V =  0.00000      Q =  0.00000    
      ITER =    18  T = 3569.5177  P =  6.000000E+06  PHASES = VAPOR
      KODE = 2  NTRIAL =   3  T = 145.6940  P = 6.000000E+06  V =  0.00000      Q =  0.00000    
      ITER =    18  T = 3569.5177  P =  6.000000E+06  PHASES = VAPOR
      KODE = 2  NTRIAL =   3  T = 145.6940  P = 6.000000E+06  V =  0.00000      Q =  0.00000    
      ITER =    18  T = 3569.5177  P =  6.000000E+06  PHASES = VAPOR
      KODE = 2  NTRIAL =   3  T = 145.6940  P = 6.000000E+06  V =  0.00000      Q =  0.00000    
      ITER =    18  T = 3569.5177  P =  6.000000E+06  PHASES = VAPOR
      KODE = 2  NTRIAL =   3  T = 145.6940  P = 6.000000E+06  V =  0.00000      Q =  0.00000    
      ITER =    18  T = 3569.5177  P =  6.000000E+06  PHASES = VAPOR
      KODE = 2  NTRIAL =   1  T = 160.4987  P = 6.000000E+06  V =  0.00000      Q =  0.00000    
      ITER =    18  T = 3569.5177  P =  6.000000E+06  PHASES = VAPOR
      KODE = 2  NTRIAL =   1  T = 160.4987  P = 6.000000E+06  V =  0.00000      Q =  0.00000    
      ITER =    18  T = 3569.5177  P =  6.000000E+06  PHASES = VAPOR
      KODE = 2  NTRIAL =   1  T = 160.4987  P = 6.000000E+06  V =  0.00000      Q =  0.00000    
      ITER =    18  T = 3569.5177  P =  6.000000E+06  PHASES = VAPOR
      KODE = 2  NTRIAL =   1  T = 160.4987  P = 6.000000E+06  V =  0.00000      Q =  0.00000    
      ITER =    18  T = 3569.5177  P =  6.000000E+06  PHASES = VAPOR
      KODE = 2  NTRIAL =   1  T = 160.4987  P = 6.000000E+06  V =  0.00000      Q =  0.00000    
      ITER =    18  T = 3569.5177  P =  6.000000E+06  PHASES = VAPOR
      KODE = 2  NTRIAL =   1  T = 160.4987  P = 6.000000E+06  V =  0.00000      Q =  0.00000    
      ITER =    18  T = 3569.5177  P =  6.000000E+06  PHASES = VAPOR
      KODE = 2  NTRIAL =   1  T = 160.4987  P = 6.000000E+06  V =  0.00000      Q =  0.00000    
      ITER =    18  T = 3569.5177  P =  6.000000E+06  PHASES = VAPOR
      KODE = 2  NTRIAL =   1  T = 160.4987  P = 6.000000E+06  V =  0.00000      Q =  0.00000    
      ITER =    18  T = 3569.5177  P =  6.000000E+06  PHASES = VAPOR
      KODE = 2  NTRIAL =   1  T = 160.4987  P = 6.000000E+06  V =  0.00000      Q =  0.00000    
      ITER =    18  T = 3569.5177  P =  6.000000E+06  PHASES = VAPOR
      KODE = 2  NTRIAL =   1  T = 160.4987  P = 6.000000E+06  V =  0.00000      Q =  0.00000    
      ITER =    18  T = 3569.5177  P =  6.000000E+06  PHASES = VAPOR
      KODE = 2  NTRIAL =   3  T = 145.6940  P = 6.000000E+06  V =  0.00000      Q =  0.00000    
      ITER =    18  T = 3569.5177  P =  6.000000E+06  PHASES = VAPOR
      KODE = 2  NTRIAL =   3  T = 145.6940  P = 6.000000E+06  V =  0.00000      Q =  0.00000    
      ITER =    18  T = 3569.5177  P =  6.000000E+06  PHASES = VAPOR
      KODE = 2  NTRIAL =   3  T = 145.6940  P = 6.000000E+06  V =  0.00000      Q =  0.00000    
      ITER =    18  T = 3569.5177  P =  6.000000E+06  PHASES = VAPOR
      KODE = 2  NTRIAL =   3  T = 145.6940  P = 6.000000E+06  V =  0.00000      Q =  0.00000    
      ITER =    18  T = 3569.5177  P =  6.000000E+06  PHASES = VAPOR
      KODE = 2  NTRIAL =   3  T = 145.6940  P = 6.000000E+06  V =  0.00000      Q =  0.00000    
      ITER =    18  T = 3569.5177  P =  6.000000E+06  PHASES = VAPOR
      KODE = 2  NTRIAL =   3  T = 145.6940  P = 6.000000E+06  V =  0.00000      Q =  0.00000    
      ITER =    18  T = 3569.5177  P =  6.000000E+06  PHASES = VAPOR
      KODE = 2  NTRIAL =   3  T = 145.6940  P = 6.000000E+06  V =  0.00000      Q =  0.00000    
      ITER =    18  T = 3569.5177  P =  6.000000E+06  PHASES = VAPOR
      KODE = 2  NTRIAL =   3  T = 145.6940  P = 6.000000E+06  V =  0.00000      Q =  0.00000    
      ITER =    18  T = 3569.5177  P =  6.000000E+06  PHASES = VAPOR
      KODE = 2  NTRIAL =   3  T = 145.6940  P = 6.000000E+06  V =  0.00000      Q =  0.00000    
      ITER =    18  T = 3569.5177  P =  6.000000E+06  PHASES = VAPOR
      KODE = 2  NTRIAL =   3  T = 145.6940  P = 6.000000E+06  V =  0.00000      Q =  0.00000    
      ITER =    18  T = 3569.5177  P =  6.000000E+06  PHASES = VAPOR
      KODE = 2  NTRIAL =   1  T = 160.4987  P = 6.000000E+06  V =  0.00000      Q =  0.00000    
      ITER =    18  T = 3569.5177  P =  6.000000E+06  PHASES = VAPOR
      KODE = 2  NTRIAL =   1  T = 160.4987  P = 6.000000E+06  V =  0.00000      Q =  0.00000    
      ITER =    18  T = 3569.5177  P =  6.000000E+06  PHASES = VAPOR
      KODE = 2  NTRIAL =   1  T = 160.4987  P = 6.000000E+06  V =  0.00000      Q =  0.00000    
      ITER =    18  T = 3569.5177  P =  6.000000E+06  PHASES = VAPOR
      KODE = 2  NTRIAL =   1  T = 160.4987  P = 6.000000E+06  V =  0.00000      Q =  0.00000    
      ITER =    18  T = 3569.5177  P =  6.000000E+06  PHASES = VAPOR
      KODE = 2  NTRIAL =   1  T = 160.4987  P = 6.000000E+06  V =  0.00000      Q =  0.00000    
      ITER =    18  T = 3569.5177  P =  6.000000E+06  PHASES = VAPOR
      KODE = 2  NTRIAL =   1  T = 160.4987  P = 6.000000E+06  V =  0.00000      Q =  0.00000    
      ITER =    18  T = 3569.5177  P =  6.000000E+06  PHASES = VAPOR
      KODE = 2  NTRIAL =   1  T = 160.4987  P = 6.000000E+06  V =  0.00000      Q =  0.00000    
      ITER =    18  T = 3569.5177  P =  6.000000E+06  PHASES = VAPOR
      KODE = 2  NTRIAL =   1  T = 160.4987  P = 6.000000E+06  V =  0.00000      Q =  0.00000    
      ITER =    18  T = 3569.5177  P =  6.000000E+06  PHASES = VAPOR
      KODE = 2  NTRIAL =   1  T = 160.4987  P = 6.000000E+06  V =  0.00000      Q =  0.00000    
      ITER =    18  T = 3569.5177  P =  6.000000E+06  PHASES = VAPOR
      KODE = 2  NTRIAL =   1  T = 160.4987  P = 6.000000E+06  V =  0.00000      Q =  0.00000    
      ITER =    18  T = 3569.5177  P =  6.000000E+06  PHASES = VAPOR
      KODE = 2  NTRIAL =   3  T = 145.6940  P = 6.000000E+06  V =  0.00000      Q =  0.00000    
      ITER =    18  T = 3569.5177  P =  6.000000E+06  PHASES = VAPOR
      KODE = 2  NTRIAL =   3  T = 145.6940  P = 6.000000E+06  V =  0.00000      Q =  0.00000    
      ITER =    18  T = 3569.5177  P =  6.000000E+06  PHASES = VAPOR
      KODE = 2  NTRIAL =   3  T = 145.6940  P = 6.000000E+06  V =  0.00000      Q =  0.00000    
      ITER =    18  T = 3569.5177  P =  6.000000E+06  PHASES = VAPOR
      KODE = 2  NTRIAL =   3  T = 145.6940  P = 6.000000E+06  V =  0.00000      Q =  0.00000    
      ITER =    18  T = 3569.5177  P =  6.000000E+06  PHASES = VAPOR
      KODE = 2  NTRIAL =   3  T = 145.6940  P = 6.000000E+06  V =  0.00000      Q =  0.00000    
      ITER =    18  T = 3569.5177  P =  6.000000E+06  PHASES = VAPOR
      KODE = 2  NTRIAL =   3  T = 145.6940  P = 6.000000E+06  V =  0.00000      Q =  0.00000    
      ITER =    18  T = 3569.5177  P =  6.000000E+06  PHASES = VAPOR
      KODE = 2  NTRIAL =   3  T = 145.6940  P = 6.000000E+06  V =  0.00000      Q =  0.00000    
      ITER =    18  T = 3569.5177  P =  6.000000E+06  PHASES = VAPOR
      KODE = 2  NTRIAL =   3  T = 145.6940  P = 6.000000E+06  V =  0.00000      Q =  0.00000    
      ITER =    18  T = 3569.5177  P =  6.000000E+06  PHASES = VAPOR
      KODE = 2  NTRIAL =   3  T = 145.6940  P = 6.000000E+06  V =  0.00000      Q =  0.00000    
      ITER =    18  T = 3569.5177  P =  6.000000E+06  PHASES = VAPOR
      KODE = 2  NTRIAL =   3  T = 145.6940  P = 6.000000E+06  V =  0.00000      Q =  0.00000    
      ITER =    18  T = 3569.5177  P =  6.000000E+06  PHASES = VAPOR
      KODE = 2  NTRIAL =   1  T = 160.4987  P = 6.000000E+06  V =  0.00000      Q =  0.00000    
      ITER =    18  T = 3569.5177  P =  6.000000E+06  PHASES = VAPOR
      KODE = 2  NTRIAL =   1  T = 160.4987  P = 6.000000E+06  V =  0.00000      Q =  0.00000    
      ITER =    18  T = 3569.5177  P =  6.000000E+06  PHASES = VAPOR
      KODE = 2  NTRIAL =   1  T = 160.4987  P = 6.000000E+06  V =  0.00000      Q =  0.00000    
      ITER =    18  T = 3569.5177  P =  6.000000E+06  PHASES = VAPOR
      KODE = 2  NTRIAL =   1  T = 160.4987  P = 6.000000E+06  V =  0.00000      Q =  0.00000    
      ITER =    18  T = 3569.5177  P =  6.000000E+06  PHASES = VAPOR
      KODE = 2  NTRIAL =   1  T = 160.4987  P = 6.000000E+06  V =  0.00000      Q =  0.00000    
      ITER =    18  T = 3569.5177  P =  6.000000E+06  PHASES = VAPOR
      KODE = 2  NTRIAL =   1  T = 160.4987  P = 6.000000E+06  V =  0.00000      Q =  0.00000    
      ITER =    18  T = 3569.5177  P =  6.000000E+06  PHASES = VAPOR
      KODE = 2  NTRIAL =   1  T = 160.4987  P = 6.000000E+06  V =  0.00000      Q =  0.00000    
      ITER =    18  T = 3569.5177  P =  6.000000E+06  PHASES = VAPOR
      KODE = 2  NTRIAL =   1  T = 160.4987  P = 6.000000E+06  V =  0.00000      Q =  0.00000    
      ITER =    18  T = 3569.5177  P =  6.000000E+06  PHASES = VAPOR
      KODE = 2  NTRIAL =   1  T = 160.4987  P = 6.000000E+06  V =  0.00000      Q =  0.00000    
      ITER =    18  T = 3569.5177  P =  6.000000E+06  PHASES = VAPOR
      KODE = 2  NTRIAL =   1  T = 160.4987  P = 6.000000E+06  V =  0.00000      Q =  0.00000    
      ITER =    18  T = 3569.5177  P =  6.000000E+06  PHASES = VAPOR
      KODE = 2  NTRIAL =   3  T = 145.6940  P = 6.000000E+06  V =  0.00000      Q =  0.00000    
      ITER =    18  T = 3569.5177  P =  6.000000E+06  PHASES = VAPOR
      KODE = 2  NTRIAL =   3  T = 145.6940  P = 6.000000E+06  V =  0.00000      Q =  0.00000    
      ITER =    18  T = 3569.5177  P =  6.000000E+06  PHASES = VAPOR
      KODE = 2  NTRIAL =   3  T = 145.6940  P = 6.000000E+06  V =  0.00000      Q =  0.00000    
      ITER =    18  T = 3569.5177  P =  6.000000E+06  PHASES = VAPOR
      KODE = 2  NTRIAL =   3  T = 145.6940  P = 6.000000E+06  V =  0.00000      Q =  0.00000    
      ITER =    18  T = 3569.5177  P =  6.000000E+06  PHASES = VAPOR
      KODE = 2  NTRIAL =   3  T = 145.6940  P = 6.000000E+06  V =  0.00000      Q =  0.00000    
      ITER =    18  T = 3569.5177  P =  6.000000E+06  PHASES = VAPOR
      KODE = 2  NTRIAL =   3  T = 145.6940  P = 6.000000E+06  V =  0.00000      Q =  0.00000    
      ITER =    18  T = 3569.5177  P =  6.000000E+06  PHASES = VAPOR
      KODE = 2  NTRIAL =   3  T = 145.6940  P = 6.000000E+06  V =  0.00000      Q =  0.00000    
      ITER =    18  T = 3569.5177  P =  6.000000E+06  PHASES = VAPOR
      KODE = 2  NTRIAL =   3  T = 145.6940  P = 6.000000E+06  V =  0.00000      Q =  0.00000    
      ITER =    18  T = 3569.5177  P =  6.000000E+06  PHASES = VAPOR
      KODE = 2  NTRIAL =   3  T = 145.6940  P = 6.000000E+06  V =  0.00000      Q =  0.00000    
      ITER =    18  T = 3569.5177  P =  6.000000E+06  PHASES = VAPOR
      KODE = 2  NTRIAL =   3  T = 145.6940  P = 6.000000E+06  V =  0.00000      Q =  0.00000    
      ITER =    18  T = 3569.5177  P =  6.000000E+06  PHASES = VAPOR
      KODE = 2  NTRIAL =   1  T = 160.4987  P = 6.000000E+06  V =  0.00000      Q =  0.00000    
      ITER =    18  T = 3569.5177  P =  6.000000E+06  PHASES = VAPOR
      KODE = 2  NTRIAL =   1  T = 160.4987  P = 6.000000E+06  V =  0.00000      Q =  0.00000    
      ITER =    18  T = 3569.5177  P =  6.000000E+06  PHASES = VAPOR
      KODE = 2  NTRIAL =   1  T = 160.4987  P = 6.000000E+06  V =  0.00000      Q =  0.00000    
      ITER =    18  T = 3569.5177  P =  6.000000E+06  PHASES = VAPOR
      KODE = 2  NTRIAL =   1  T = 160.4987  P = 6.000000E+06  V =  0.00000      Q =  0.00000    
      ITER =    18  T = 3569.5177  P =  6.000000E+06  PHASES = VAPOR
      KODE = 2  NTRIAL =   1  T = 160.4987  P = 6.000000E+06  V =  0.00000      Q =  0.00000    
      ITER =    18  T = 3569.5177  P =  6.000000E+06  PHASES = VAPOR
      KODE = 2  NTRIAL =   1  T = 160.4987  P = 6.000000E+06  V =  0.00000      Q =  0.00000    
      ITER =    18  T = 3569.5177  P =  6.000000E+06  PHASES = VAPOR
      KODE = 2  NTRIAL =   1  T = 160.4987  P = 6.000000E+06  V =  0.00000      Q =  0.00000    
      ITER =    18  T = 3569.5177  P =  6.000000E+06  PHASES = VAPOR
      KODE = 2  NTRIAL =   1  T = 160.4987  P = 6.000000E+06  V =  0.00000      Q =  0.00000    
      ITER =    18  T = 3569.5177  P =  6.000000E+06  PHASES = VAPOR
      KODE = 2  NTRIAL =   1  T = 160.4987  P = 6.000000E+06  V =  0.00000      Q =  0.00000    
      ITER =    18  T = 3569.5177  P =  6.000000E+06  PHASES = VAPOR
      KODE = 2  NTRIAL =   1  T = 160.4987  P = 6.000000E+06  V =  0.00000      Q =  0.00000    
      ITER =    18  T = 3569.5177  P =  6.000000E+06  PHASES = VAPOR
      KODE = 2  NTRIAL =   3  T = 145.6940  P = 6.000000E+06  V =  0.00000      Q =  0.00000    
      ITER =    18  T = 3569.5177  P =  6.000000E+06  PHASES = VAPOR
      KODE = 2  NTRIAL =   3  T = 145.6940  P = 6.000000E+06  V =  0.00000      Q =  0.00000    
      ITER =    18  T = 3569.5177  P =  6.000000E+06  PHASES = VAPOR
      KODE = 2  NTRIAL =   3  T = 145.6940  P = 6.000000E+06  V =  0.00000      Q =  0.00000    
      ITER =    18  T = 3569.5177  P =  6.000000E+06  PHASES = VAPOR
      KODE = 2  NTRIAL =   3  T = 145.6940  P = 6.000000E+06  V =  0.00000      Q =  0.00000    
      ITER =    18  T = 3569.5177  P =  6.000000E+06  PHASES = VAPOR
      KODE = 2  NTRIAL =   3  T = 145.6940  P = 6.000000E+06  V =  0.00000      Q =  0.00000    
      ITER =    18  T = 3569.5177  P =  6.000000E+06  PHASES = VAPOR
      KODE = 2  NTRIAL =   3  T = 145.6940  P = 6.000000E+06  V =  0.00000      Q =  0.00000    
      ITER =    18  T = 3569.5177  P =  6.000000E+06  PHASES = VAPOR
      KODE = 2  NTRIAL =   3  T = 145.6940  P = 6.000000E+06  V =  0.00000      Q =  0.00000    
      ITER =    18  T = 3569.5177  P =  6.000000E+06  PHASES = VAPOR
      KODE = 2  NTRIAL =   3  T = 145.6940  P = 6.000000E+06  V =  0.00000      Q =  0.00000    
      ITER =    18  T = 3569.5177  P =  6.000000E+06  PHASES = VAPOR
      KODE = 2  NTRIAL =   3  T = 145.6940  P = 6.000000E+06  V =  0.00000      Q =  0.00000    
      ITER =    18  T = 3569.5177  P =  6.000000E+06  PHASES = VAPOR
      KODE = 2  NTRIAL =   3  T = 145.6940  P = 6.000000E+06  V =  0.00000      Q =  0.00000    
      ITER =    18  T = 3569.5177  P =  6.000000E+06  PHASES = VAPOR
      KODE = 2  NTRIAL =   1  T = 160.4987  P = 6.000000E+06  V =  0.00000      Q =  0.00000    
      ITER =    18  T = 3569.5177  P =  6.000000E+06  PHASES = VAPOR
      KODE = 2  NTRIAL =   1  T = 160.4987  P = 6.000000E+06  V =  0.00000      Q =  0.00000    
      ITER =    18  T = 3569.5177  P =  6.000000E+06  PHASES = VAPOR
      KODE = 2  NTRIAL =   1  T = 160.4987  P = 6.000000E+06  V =  0.00000      Q =  0.00000    
      ITER =    18  T = 3569.5177  P =  6.000000E+06  PHASES = VAPOR
      KODE = 2  NTRIAL =   1  T = 160.4987  P = 6.000000E+06  V =  0.00000      Q =  0.00000    
      ITER =    18  T = 3569.5177  P =  6.000000E+06  PHASES = VAPOR
      KODE = 2  NTRIAL =   1  T = 160.4987  P = 6.000000E+06  V =  0.00000      Q =  0.00000    
      ITER =    18  T = 3569.5177  P =  6.000000E+06  PHASES = VAPOR
      KODE = 2  NTRIAL =   1  T = 160.4987  P = 6.000000E+06  V =  0.00000      Q =  0.00000    
      ITER =    18  T = 3569.5177  P =  6.000000E+06  PHASES = VAPOR
      KODE = 2  NTRIAL =   1  T = 160.4987  P = 6.000000E+06  V =  0.00000      Q =  0.00000    
      ITER =    18  T = 3569.5177  P =  6.000000E+06  PHASES = VAPOR
      KODE = 2  NTRIAL =   1  T = 160.4987  P = 6.000000E+06  V =  0.00000      Q =  0.00000    
      ITER =    18  T = 3569.5177  P =  6.000000E+06  PHASES = VAPOR
      KODE = 2  NTRIAL =   1  T = 160.4987  P = 6.000000E+06  V =  0.00000      Q =  0.00000    
      ITER =    18  T = 3569.5177  P =  6.000000E+06  PHASES = VAPOR
      KODE = 2  NTRIAL =   1  T = 160.4987  P = 6.000000E+06  V =  0.00000      Q =  0.00000    
      ITER =    18  T = 3569.5177  P =  6.000000E+06  PHASES = VAPOR
      KODE = 2  NTRIAL =   3  T = 145.6940  P = 6.000000E+06  V =  0.00000      Q =  0.00000    
      ITER =    18  T = 3569.5177  P =  6.000000E+06  PHASES = VAPOR
      KODE = 2  NTRIAL =   3  T = 145.6940  P = 6.000000E+06  V =  0.00000      Q =  0.00000    
      ITER =    18  T = 3569.5177  P =  6.000000E+06  PHASES = VAPOR
      KODE = 2  NTRIAL =   3  T = 145.6940  P = 6.000000E+06  V =  0.00000      Q =  0.00000    
      ITER =    18  T = 3569.5177  P =  6.000000E+06  PHASES = VAPOR
      KODE = 2  NTRIAL =   3  T = 145.6940  P = 6.000000E+06  V =  0.00000      Q =  0.00000    
      ITER =    18  T = 3569.5177  P =  6.000000E+06  PHASES = VAPOR
      KODE = 2  NTRIAL =   3  T = 145.6940  P = 6.000000E+06  V =  0.00000      Q =  0.00000    
      ITER =    18  T = 3569.5177  P =  6.000000E+06  PHASES = VAPOR
      KODE = 2  NTRIAL =   3  T = 145.6940  P = 6.000000E+06  V =  0.00000      Q =  0.00000    
      ITER =    18  T = 3569.5177  P =  6.000000E+06  PHASES = VAPOR
      KODE = 2  NTRIAL =   3  T = 145.6940  P = 6.000000E+06  V =  0.00000      Q =  0.00000    
      ITER =    18  T = 3569.5177  P =  6.000000E+06  PHASES = VAPOR
      KODE = 2  NTRIAL =   3  T = 145.6940  P = 6.000000E+06  V =  0.00000      Q =  0.00000    
      ITER =    18  T = 3569.5177  P =  6.000000E+06  PHASES = VAPOR
      KODE = 2  NTRIAL =   3  T = 145.6940  P = 6.000000E+06  V =  0.00000      Q =  0.00000    
      ITER =    18  T = 3569.5177  P =  6.000000E+06  PHASES = VAPOR
      KODE = 2  NTRIAL =   3  T = 145.6940  P = 6.000000E+06  V =  0.00000      Q =  0.00000    
      ITER =    18  T = 3569.5177  P =  6.000000E+06  PHASES = VAPOR
