
 + + + + + + + + + + + + + + + + + + + + + + + + + + + + + + + + + + + + + + + +
 + + + + + + + + + + + + + + + + + + + + + + + + + + + + + + + + + + + + + + + +
 + +                                                                         + +
 + +                      ASPEN PLUS CALCULATION HISTORY                     + +
 + +                                                                         + +
 + + + + + + + + + + + + + + + + + + + + + + + + + + + + + + + + + + + + + + + +
 + + + + + + + + + + + + + + + + + + + + + + + + + + + + + + + + + + + + + + + +

 ASPEN PLUS IS A TRADEMARK OF           HOTLINE:
 ASPEN TECHNOLOGY, INC.                 U.S.A. 888/996-7100
 781/221-6400                           EUROPE (44) 1189-226555

 PLATFORM: WIN-X64                                       MAY 24, 2024        
 VERSION: 40.0   Build 359                               FRIDAY      
 INSTALLATION:                                           1:53:24 P.M.        

 THIS COPY OF ASPEN PLUS LICENSED TO INDIAN INSTITUTE OF TECH        


      ASPEN PLUS (R) IS A PROPRIETARY PRODUCT OF ASPEN TECHNOLOGY, INC.
      (ASPENTECH), AND MAY BE USED ONLY UNDER AGREEMENT WITH ASPENTECH.
      RESTRICTED RIGHTS LEGEND:  USE, REPRODUCTION, OR DISCLOSURE BY THE
      U.S. GOVERNMENT IS SUBJECT TO RESTRICTIONS SET FORTH IN 
      (i) FAR 52.227-14, Alt. III, (ii) FAR 52.227-19, (iii) DFARS 
      252.227-7013(c)(1)(ii), or (iv) THE ACCOMPANYING LICENSE AGREEMENT,
      AS APPLICABLE. FOR PURPOSES OF THE FAR, THIS SOFTWARE SHALL BE DEEMED
      TO BE "UNPUBLISHED" AND LICENSED WITH DISCLOSURE PROHIBITIONS.
      CONTRACTOR/SUBCONTRACTOR: ASPEN TECHNOLOGY, INC. 20 CROSBY DRIVE,
      BEDFORD, MA 01730.
 *** INPUT SUMMARY ***

 >>CURRENT RUN

   ORIGINAL RUN                           MAY 24, 2024        
   1:53:24 P.M.                           FRIDAY      
   INPUT FILE: _3951qog.inm
   RUN ID : _3951qog
          1    ;
          2    ;Input file created by Aspen Plus Rel. 40.0 at 13:53:24 Fri May 24, 2024
          3    ;Directory C:\Users\admin\Desktop\Ethyl Benzene  Runid simulation 1
          4    ;
          5
          6
          7    DYNAMICS
          8        DYNAMICS RESULTS=ON
          9
         10    IN-UNITS MET PRESSURE=bar TEMPERATURE=C DELTA-T=C PDROP=bar  &
         11            INVERSE-PRES='1/bar' SHORT-LENGTH=mm
         12
         13    DEF-STREAMS CONVEN ALL
         14
         15    MODEL-OPTION
         16
         17    DATABANKS 'APV140 PURE40' / 'APV140 AQUEOUS' / 'APV140 SOLIDS' &
         18             / 'APV140 INORGANIC' / 'APESV140 AP-EOS' /  &
         19            'NISTV140 NIST-TRC' / NOASPENPCD
         20
         21    PROP-SOURCES 'APV140 PURE40' / 'APV140 AQUEOUS' /  &
         22            'APV140 SOLIDS' / 'APV140 INORGANIC' / 'APESV140 AP-EOS' &
         23             / 'NISTV140 NIST-TRC'
         24
         25    COMPONENTS
         26        ETHYLENE C2H4 /
         27        BENZENE C6H6 /
         28        EB C8H10-4 /
         29        DEB C10H14-8
         30
         31    SOLVE
         32        RUN-MODE MODE=SIM
         33
         34    FLOWSHEET
         35        BLOCK B1 IN=S1 OUT=S2
         36        BLOCK B2 IN=S2 OUT=S3
         37        BLOCK B4 IN=S4 OUT=S5
         38        BLOCK B5 IN=S5 OUT=S6
         39        BLOCK B3 IN=S3 S6 OUT=S7
         40
         41    PROPERTIES CHAO-SEA
         42
         43    STREAM S1
         44        SUBSTREAM MIXED TEMP=320. <K> PRES=10. MOLE-FLOW=100.
         45        MOLE-FRAC BENZENE 1.
         46
         47    STREAM S4
         48        SUBSTREAM MIXED TEMP=320. <K> PRES=5. MOLE-FLOW=100.
         49        MOLE-FRAC ETHYLENE 1.
         50
         51    BLOCK B3 RCSTR
         52        PARAM VOL=200. <cum> TEMP=434. <K> PRES=20. <atm> NPHASE=1  &
         53            PHASE=L
         54        BLOCK-OPTION FREE-WATER=NO
         55        REACTIONS RXN-IDS=R-1
         56        PARAM-MSSTR VAPOR-INLET=NO
         57
         58    BLOCK B1 PUMP
         59        PARAM PRES=25.
         60
         61    BLOCK B4 COMPR
         62        PARAM TYPE=ISENTROPIC PRES=25. SB-MAXIT=30 SB-TOL=0.0001
         63
         64    BLOCK B2 VALVE
         65        PARAM P-OUT=20. <atm>
         66
         67    BLOCK B5 VALVE
         68        PARAM P-OUT=20. <atm>
         69
         70    EO-CONV-OPTI
         71
         72    STREAM-REPOR MOLEFLOW
         73
         74    REACTIONS R-1 POWERLAW
         75        REAC-DATA 1
         76        REAC-DATA 2
         77        REAC-DATA 3
         78        RATE-CON 1 PRE-EXP=1528000. ACT-ENERGY=17000.
         79        RATE-CON 2 PRE-EXP=27780000. ACT-ENERGY=20000.
         80        RATE-CON 3 PRE-EXP=1000. ACT-ENERGY=15000.
         81        STOIC 1 MIXED ETHYLENE -1. / BENZENE -1. / EB 1.
         82        STOIC 2 MIXED EB -1. / ETHYLENE -1. / DEB 1.
         83        STOIC 3 MIXED DEB -1. / BENZENE -1. / EB 2.
         84        POWLAW-EXP 1 MIXED ETHYLENE 1. / MIXED BENZENE 1.
         85        POWLAW-EXP 2 MIXED EB 1. / MIXED ETHYLENE 1.
         86        POWLAW-EXP 3 MIXED DEB 1. / MIXED BENZENE 1.
         87    ;
         88    ;
         89    ;
         90    ;
         91    ;
 *** INPUT TRANSLATOR MESSAGES ***

  *** THIS RUN USES THE PROPERTIES ENTERPRISE DATABASE ***
      SQLLOCALDB.APESV140 : (DATAVERSION - 40.0.0.13)                         
      SQLLOCALDB.APV140 : (DATAVERSION - 40.0.0.13)                           
      SQLLOCALDB.FACTV140 : (DATAVERSION - 40.0.0.12)                         
      SQLLOCALDB.NISTV140 : (DATAVERSION - 40.0.0.12)                         
 
 

 PDF updated                                                                      TIME =      0.51

 *** CALCULATION TRACE ***


 *** FLOWSHEET ANALYSIS MESSAGES ***

 FLOWSHEET CONNECTIVITY BY STREAMS       

   STREAM     SOURCE     DEST           STREAM     SOURCE     DEST
   S1         ----       B1             S4         ----       B4      
   S2         B1         B2             S3         B2         B3      
   S5         B4         B5             S6         B5         B3      
   S7         B3         ----                                         

 FLOWSHEET CONNECTIVITY BY BLOCKS        

   BLOCK        INLETS                         OUTLETS
   B1           S1                             S2                          
   B2           S2                             S3                          
   B4           S4                             S5                          
   B5           S5                             S6                          
   B3           S3 S6                          S7                          

      COMPUTATION ORDER FOR THE FLOWSHEET IS:
      B4 B5 B1 B2 B3 

Calculations begin                                                              time      0.03


 SIMULATION CALCULATIONS BEGIN                                                    TIME =      0.03

      ENTHALPY CALCULATION FOR INLET STREAM S4 OF BLOCK B4                        TIME =      0.03
      KODE = 2  NTRIAL =   1  T = 320.0000  P =  500000.      V =  1.00000      Q =  0.00000    

      UOS BLOCK B4       MODEL: COMPR                                             TIME =      0.03
      OUTLET TEMP =   454.4       OUTLET PRES =  0.2500E+07   INDICATED HP =  0.1853E+06   BRAKE HP =  0.1853E+06
      ISENTR TEMP =   423.0      CALC ISENTR EFF =  0.7200      ISENTR HP =  0.1334E+06  HP =   5146.    

      UOS BLOCK B5       MODEL: VALVE                                             TIME =      0.03
      NO. TEMP ITER =    6     TEMP =  452.825    
      KODE = 1  NTRIAL =   2  T = 452.8247  P = 2.026500E+06  V =  1.00000      Q =  0.00000    
      OUTLET PRES =   0.2026E+07 PRES DROP =   0.4735E+06

      ENTHALPY CALCULATION FOR INLET STREAM S1 OF BLOCK B1                        TIME =      0.03
      KODE = 2  NTRIAL =   1  T = 320.0000  P = 1.000000E+06  V =  0.00000      Q =  0.00000    

      UOS BLOCK B1       MODEL: PUMP                                              TIME =      0.03
      VOL-FLOW   =  0.2553E-02 , DELTA P    =  0.1500E+07 , PUMP EFF   =  0.4083    
      FLUID PWR  =   3830.     , BRAKE PWR  =   9379.     , ELEC PWR   =   9379.    

      UOS BLOCK B2       MODEL: VALVE                                             TIME =      0.03
      NO. TEMP ITER =    6     TEMP =  322.063    
      KODE = 1  NTRIAL =   2  T = 322.0628  P = 2.026500E+06  V =  0.00000      Q =  0.00000    
      OUTLET PRES =   0.2026E+07 PRES DROP =   0.4735E+06

      UOS BLOCK B3       MODEL: RCSTR                                             TIME =      0.03
      KODE = 2   NO. TEMP ITER =    1     TEMP =  434.000    
      KPHASE =    2 KODE =    2 T =  434.000     P = 2.026500E+06 Q =-2.653172E+06
      REACTOR DUTY = -0.265317E+07  VOLUME =   200.000      RES TIME =   49439.5    
      REACTOR T =   434.000      P =  2.026500E+06  V =   0.00000    

      GENERATING RESULTS FOR UOS BLOCK B1       MODEL: PUMP                       TIME =      0.03
      KODE = 5  NTRIAL =   3  T = 320.0000  P =  35136.5      V =  0.00000      Q = -1441.62    
      VOL-FLOW   =  0.2553E-02 , DELTA P    =  0.1500E+07 , PUMP EFF   =  0.4083    
      FLUID PWR  =   3830.     , BRAKE PWR  =   9379.     , ELEC PWR   =   9379.    
      NPSH AVAIL =   1135.    

 Report Writer entered                                                            Time =      0.04

 Results generated                                                                Time =      0.06
<reset scope>
<reset scope>
<reset scope>
<reset scope>
<reset scope>
<reset scope>
<reset scope>
<reset scope>


*** INPUT SPECIFICATION MESSAGES ***

 BLOCK        B3       IS GENERATED BECAUSE OF OTHER CHANGES 05/24/2024   13:55:18:99 
 BLOCK B3 RCSTR
     PARAM VOL=200. <CUM> TEMP=434. <K> PRES=20. <ATM> NPHASE=1  &
         PHASE=L
     BLOCK-OPTION FREE-WATER=NO
     REACTIONS RXN-IDS=R-1
     PARAM-MSSTR VAPOR-INLET=NO

 BLOCK        B7       IS NEW 05/24/2024   13:55:18:99 
 BLOCK B7 RCSTR
     PARAM VOL=200. TEMP=432. <K> PRES=19. <atm> NPHASE=1  &
         PHASE=L
     BLOCK-OPTION FREE-WATER=NO
     REACTIONS RXN-IDS=R-1
     PARAM-MSSTR VAPOR-INLET=NO

 BLOCK        B6       IS NEW 05/24/2024   13:55:18:99 
 BLOCK B6 VALVE
     PARAM P-OUT=19. <atm>

 FLOWSHEET    IS  NEW 05/24/2024   13:55:18:99 
 FLOWSHEET
     BLOCK B1 IN=S1 OUT=S2
     BLOCK B2 IN=S2 OUT=S3
     BLOCK B4 IN=S4 OUT=S5
     BLOCK B5 IN=S5 OUT=S6
     BLOCK B3 IN=S3 S6 OUT=S7
     BLOCK B6 IN=S7 OUT=S8
     BLOCK B7 IN=S8 OUT=S9

 PDF updated                                                                      TIME =    114.02
 THIS COPY OF ASPEN PLUS LICENSED TO INDIAN INSTITUTE OF TECH        
 
 
 *** FLOWSHEET ANALYSIS MESSAGES ***

 FLOWSHEET CONNECTIVITY BY STREAMS       

   STREAM     SOURCE     DEST           STREAM     SOURCE     DEST
   S1         ----       B1             S4         ----       B4      
   S2         B1         B2             S3         B2         B3      
   S5         B4         B5             S6         B5         B3      
   S7         B3         B6             S8         B6         B7      
   S9         B7         ----                                         

 FLOWSHEET CONNECTIVITY BY BLOCKS        

   BLOCK        INLETS                         OUTLETS
   B1           S1                             S2                          
   B2           S2                             S3                          
   B4           S4                             S5                          
   B5           S5                             S6                          
   B3           S3 S6                          S7                          
   B6           S7                             S8                          
   B7           S8                             S9                          

      COMPUTATION ORDER FOR THE FLOWSHEET IS:
      B4 B5 B1 B2 B3 B6 B7 


Calculations begin                                                              time    114.03


      UOS BLOCK B3       MODEL: RCSTR                                             TIME =    114.03
      KODE = 2   NO. TEMP ITER =    1     TEMP =  434.000    
      KPHASE =    2 KODE =    2 T =  434.000     P = 2.026500E+06 Q =-2.653172E+06
      REACTOR DUTY = -0.265317E+07  VOLUME =   200.000      RES TIME =   49439.5    
      REACTOR T =   434.000      P =  2.026500E+06  V =   0.00000    

      UOS BLOCK B6       MODEL: VALVE                                             TIME =    114.03
      NO. TEMP ITER =    5     TEMP =  434.023    
      KODE = 1  NTRIAL =   5  T = 434.0233  P = 1.925175E+06  V =  0.00000      Q =  0.00000    
      OUTLET PRES =   0.1925E+07 PRES DROP =   0.1013E+06

      UOS BLOCK B7       MODEL: RCSTR                                             TIME =    114.03
      KODE = 2   NO. TEMP ITER =    1     TEMP =  432.000    
      KPHASE =    2 KODE =    2 T =  432.000     P = 1.925175E+06 Q = -15108.5    
      REACTOR DUTY =  -15108.5      VOLUME =  0.200000      RES TIME =   49.5949    
      REACTOR T =   432.000      P =  1.925175E+06  V =   0.00000    

 Report Writer entered                                                            Time =    114.04

 Results generated                                                                Time =    114.07

RUN SAVED



 NO ERRORS OR WARNINGS GENERATED


 NO ERRORS OR WARNINGS GENERATED

RUN SAVED



 NO ERRORS OR WARNINGS GENERATED


 NO ERRORS OR WARNINGS GENERATED

RUN SAVED



 NO ERRORS OR WARNINGS GENERATED


 NO ERRORS OR WARNINGS GENERATED
<reset scope>
<reset scope>
<reset scope>
<reset scope>
<reset scope>
<reset scope>
<reset scope>


*** INPUT SPECIFICATION MESSAGES ***

 BLOCK        B8       IS NEW 05/24/2024   13:56:52:99 
 BLOCK B8 RADFRAC
     PARAM NSTAGE=20 ALGORITHM=STANDARD MAXOL=25 DAMPING=NONE
     COL-CONFIG CONDENSER=TOTAL
     FEEDS S9 10 ON-STAGE
     PRODUCTS S10 1 L / S11 20 L
     P-SPEC 1 0.3 <atm>
     COL-SPECS QN=2. <MW> DP-STAGE=0.01 MOLE-RR=0.774

 FLOWSHEET    IS  NEW 05/24/2024   13:56:52:99 
 FLOWSHEET
     BLOCK B1 IN=S1 OUT=S2
     BLOCK B2 IN=S2 OUT=S3
     BLOCK B4 IN=S4 OUT=S5
     BLOCK B5 IN=S5 OUT=S6
     BLOCK B3 IN=S3 S6 OUT=S7
     BLOCK B6 IN=S7 OUT=S8
     BLOCK B7 IN=S8 OUT=S9
     BLOCK B8 IN=S9 OUT=S10 S11

 PDF updated                                                                      TIME =    207.70
 THIS COPY OF ASPEN PLUS LICENSED TO INDIAN INSTITUTE OF TECH        
 
 
 *** FLOWSHEET ANALYSIS MESSAGES ***

 FLOWSHEET CONNECTIVITY BY STREAMS       

   STREAM     SOURCE     DEST           STREAM     SOURCE     DEST
   S1         ----       B1             S4         ----       B4      
   S2         B1         B2             S3         B2         B3      
   S5         B4         B5             S6         B5         B3      
   S7         B3         B6             S8         B6         B7      
   S9         B7         B8             S10        B8         ----    
   S11        B8         ----                                         

 FLOWSHEET CONNECTIVITY BY BLOCKS        

   BLOCK        INLETS                         OUTLETS
   B1           S1                             S2                          
   B2           S2                             S3                          
   B4           S4                             S5                          
   B5           S5                             S6                          
   B3           S3 S6                          S7                          
   B6           S7                             S8                          
   B7           S8                             S9                          
   B8           S9                             S10 S11                     

      COMPUTATION ORDER FOR THE FLOWSHEET IS:
      B4 B5 B1 B2 B3 B6 B7 B8 


Calculations begin                                                              time    207.82


      UOS BLOCK B8       MODEL: RADFRAC                                           TIME =    207.82

       Convergence iterations:
         OL   ML   IL     Err/Tol
          1    1    4      66.171    
          2    1    3      6.0779    
          3    1    3      3.5250    
          4    1    3     0.78361    

  *** SEVERE ERROR WHILE EXECUTING UNIT OPERATIONS BLOCK: "B8" (MODEL:          
      "RADFRAC")                                               (UDL03.3)        
      THE FOLLOWING STAGES DRIED UP (VAPOR OR LIQUID FLOW APPROACHES 0):        
       20                                                                       
      A LIMIT OF  0.10000E-04 * SUM OF FEEDS WAS IMPOSED ON THE FLOW RATES      
      OR A LIMIT OF  0.10000E-04 WAS IMPOSED ON THE STAGE V/L OR L/V RATIO.     

 Report Writer entered                                                            Time =    207.83

 Results generated                                                                Time =    207.85


*** INPUT SPECIFICATION MESSAGES ***

 CHANGES WERE MADE TO STREAM       S1       05/24/2024   13:57:24:09 
 STREAM S1
     SUBSTREAM MIXED TEMP=320. <K> PRES=10. MOLE-FLOW=1600.
     MOLE-FRAC BENZENE 1.

 CHANGES WERE MADE TO STREAM       S4       05/24/2024   13:57:24:09 
 STREAM S4
     SUBSTREAM MIXED TEMP=320. <K> PRES=5. MOLE-FLOW=630.6
     MOLE-FRAC ETHYLENE 1.

 PDF updated                                                                      TIME =    239.09
 THIS COPY OF ASPEN PLUS LICENSED TO INDIAN INSTITUTE OF TECH        


Calculations begin                                                              time    239.10


      ENTHALPY CALCULATION FOR INLET STREAM S4 OF BLOCK B4                        TIME =    239.10
      KODE = 2  NTRIAL =   1  T = 320.0000  P =  500000.      V =  1.00000      Q =  0.00000    

      UOS BLOCK B4       MODEL: COMPR                                             TIME =    239.10
      OUTLET TEMP =   454.4       OUTLET PRES =  0.2500E+07   INDICATED HP =  0.1168E+07   BRAKE HP =  0.1168E+07
      ISENTR TEMP =   423.0      CALC ISENTR EFF =  0.7200      ISENTR HP =  0.8411E+06  HP =  0.2046E+06

      UOS BLOCK B5       MODEL: VALVE                                             TIME =    239.10
      NO. TEMP ITER =    6     TEMP =  452.825    
      KODE = 1  NTRIAL =   2  T = 452.8247  P = 2.026500E+06  V =  1.00000      Q =  0.00000    
      OUTLET PRES =   0.2026E+07 PRES DROP =   0.4735E+06

      ENTHALPY CALCULATION FOR INLET STREAM S1 OF BLOCK B1                        TIME =    239.10
      KODE = 2  NTRIAL =   1  T = 320.0000  P = 1.000000E+06  V =  0.00000      Q =  0.00000    

      UOS BLOCK B1       MODEL: PUMP                                              TIME =    239.10
      VOL-FLOW   =  0.4085E-01 , DELTA P    =  0.1500E+07 , PUMP EFF   =  0.7359    
      FLUID PWR  =  0.6127E+05 , BRAKE PWR  =  0.8326E+05 , ELEC PWR   =  0.8326E+05

      UOS BLOCK B2       MODEL: VALVE                                             TIME =    239.10
      NO. TEMP ITER =    6     TEMP =  320.965    
      KODE = 1  NTRIAL =   2  T = 320.9651  P = 2.026500E+06  V =  0.00000      Q =  0.00000    
      OUTLET PRES =   0.2026E+07 PRES DROP =   0.4735E+06

      UOS BLOCK B3       MODEL: RCSTR                                             TIME =    239.10
      KODE = 2   NO. TEMP ITER =    1     TEMP =  434.000    
      KPHASE =    2 KODE =    2 T =  434.000     P = 2.026500E+06 Q =-1.191566E+07
      REACTOR DUTY = -0.119157E+08  VOLUME =   200.000      RES TIME =   3631.31    
      REACTOR T =   434.000      P =  2.026500E+06  V =   0.00000    

      UOS BLOCK B6       MODEL: VALVE                                             TIME =    239.11
      NO. TEMP ITER =    5     TEMP =  434.019    
      KODE = 1  NTRIAL =   5  T = 434.0187  P = 1.925175E+06  V =  0.00000      Q =  0.00000    
      OUTLET PRES =   0.1925E+07 PRES DROP =   0.1013E+06

      UOS BLOCK B7       MODEL: RCSTR                                             TIME =    239.11
      KODE = 2   NO. TEMP ITER =    1     TEMP =  432.000    
      KPHASE =    2 KODE =    2 T =  432.000     P = 1.925175E+06 Q = -192610.    
      REACTOR DUTY =  -192610.      VOLUME =  0.200000      RES TIME =   3.64402    
      REACTOR T =   432.000      P =  1.925175E+06  V =   0.00000    

      UOS BLOCK B8       MODEL: RADFRAC                                           TIME =    239.11

       Convergence iterations:
         OL   ML   IL     Err/Tol
          1    1    7      1061.2    
          2    1    3      106.67    
          3    1    3      71.585    
          4    1    3      48.457    
          5    1    3      21.818    
          6    1    3      4.9626    
          7    1    3     0.55747    

      GENERATING RESULTS FOR UOS BLOCK B1       MODEL: PUMP                       TIME =    239.11
      KODE = 5  NTRIAL =   3  T = 320.0000  P =  35136.5      V =  0.00000      Q = -23065.8    
      VOL-FLOW   =  0.4085E-01 , DELTA P    =  0.1500E+07 , PUMP EFF   =  0.7359    
      FLUID PWR  =  0.6127E+05 , BRAKE PWR  =  0.8326E+05 , ELEC PWR   =  0.8326E+05
      NPSH AVAIL =   1135.    

      CHECKING PHASE EQUILIBRIUM RESULTS                                          TIME =    239.11

      CHECKING PHASE EQUILIBRIUM RESULTS                                          TIME =    239.11

 Report Writer entered                                                            Time =    239.12

 Results generated                                                                Time =    239.16
<reset scope>
<reset scope>
<reset scope>
<reset scope>
<reset scope>
<reset scope>


*** INPUT SPECIFICATION MESSAGES ***

 BLOCK        C1       IS NEW 05/24/2024   13:57:53:99 
 BLOCK C1 RADFRAC
     PARAM NSTAGE=20 ALGORITHM=STANDARD MAXOL=25 DAMPING=NONE
     COL-CONFIG CONDENSER=TOTAL
     FEEDS S9 10 ON-STAGE
     PRODUCTS C1-D 1 L / C1-B 20 L
     P-SPEC 1 0.3 <atm>
     COL-SPECS QN=2. <MW> DP-STAGE=0.01 MOLE-RR=0.774

 RENAME       IS  NEW 05/24/2024   13:57:53:99 
 RENAME
     STREAM  &
         "S10" "C1-D" /  &
         "S11" "C1-B"
     BLOCK  &
         "B8" "C1"

 PDF updated                                                                      TIME =    269.01
 THIS COPY OF ASPEN PLUS LICENSED TO INDIAN INSTITUTE OF TECH        


Calculations begin                                                              time    269.03


      UOS BLOCK C1       MODEL: RADFRAC                                           TIME =    269.03

       Convergence iterations:
         OL   ML   IL     Err/Tol
          1    1    3     0.29215    

      CHECKING PHASE EQUILIBRIUM RESULTS                                          TIME =    269.03

      CHECKING PHASE EQUILIBRIUM RESULTS                                          TIME =    269.03

 Report Writer entered                                                            Time =    269.04

 Results generated                                                                Time =    269.06

RUN SAVED



 *** SUMMARY OF ERRORS ***

                  PHYSICAL
                  PROPERTY  SYSTEM  SIMULATION
 TERMINAL ERRORS      0        0         0
   SEVERE ERRORS      0        0         1
          ERRORS      0        0         0
        WARNINGS      0        0         0


 *** SUMMARY OF ERRORS ***

                  PHYSICAL
                  PROPERTY  SYSTEM  SIMULATION
 TERMINAL ERRORS      0        0         0
   SEVERE ERRORS      0        0         1
          ERRORS      0        0         0
        WARNINGS      0        0         0


*** INPUT SPECIFICATION MESSAGES ***

 CHANGES WERE MADE TO BLOCK        C1       05/24/2024   13:58:47:99 
 BLOCK C1 RADFRAC
     PARAM NSTAGE=20 ALGORITHM=STANDARD MAXOL=25 DAMPING=NONE
     COL-CONFIG CONDENSER=TOTAL
     FEEDS S9 10 ON-STAGE
     PRODUCTS C1-D 1 L / C1-B 20 L
     P-SPEC 1 0.3 <atm>
     COL-SPECS QN=2. <MW> DP-STAGE=0.01 MOLE-RR=0.774
     SPEC 1 MOLE-FRAC 0.9888398 COMPS=BENZENE STREAMS=C1-D  &
         SPEC-DESCRIP="Mole purity, 0.9888398, PRODUCT"
     VARY 1 MOLE-RR 0.01 10.

 PDF updated                                                                      TIME =    322.31
 THIS COPY OF ASPEN PLUS LICENSED TO INDIAN INSTITUTE OF TECH        


Calculations begin                                                              time    322.34


      UOS BLOCK C1       MODEL: RADFRAC                                           TIME =    322.34

       Convergence iterations:
         OL   ML   IL     Err/Tol
          1    5   13     0.37454    

      RESULTS FOR MANIPULATED VARIABLES:
      VARIABLE     FINAL VALUE    LOWER BOUND    UPPER BOUND
         1         0.77277        0.10000E-01     10.000    

      CHECKING PHASE EQUILIBRIUM RESULTS                                          TIME =    322.34

      CHECKING PHASE EQUILIBRIUM RESULTS                                          TIME =    322.34

 Report Writer entered                                                            Time =    322.34

 Results generated                                                                Time =    322.37


*** INPUT SPECIFICATION MESSAGES ***

 CHANGES WERE MADE TO BLOCK        C1       05/24/2024   13:58:56:99 
 BLOCK C1 RADFRAC
     PARAM NSTAGE=20 ALGORITHM=STANDARD MAXOL=25 DAMPING=NONE
     COL-CONFIG CONDENSER=TOTAL
     FEEDS S9 10 ON-STAGE
     PRODUCTS C1-D 1 L / C1-B 20 L
     P-SPEC 1 0.3 <atm>
     COL-SPECS QN=2. <MW> DP-STAGE=0.01 MOLE-RR=0.774
     SPEC 1 MOLE-FRAC 0.99 COMPS=BENZENE STREAMS=C1-D  &
         SPEC-DESCRIP="Mole purity, 0.99, PRODUCT"
     VARY 1 MOLE-RR 0.01 10.

 PDF updated                                                                      TIME =    331.63
 THIS COPY OF ASPEN PLUS LICENSED TO INDIAN INSTITUTE OF TECH        


Calculations begin                                                              time    331.65


      UOS BLOCK C1       MODEL: RADFRAC                                           TIME =    331.65

       Convergence iterations:
         OL   ML   IL     Err/Tol
          1    5   16      61.292    
          2    3    8      16.012    
          3    2    5      1.8701    
          4    2    3     0.50428E-01

      RESULTS FOR MANIPULATED VARIABLES:
      VARIABLE     FINAL VALUE    LOWER BOUND    UPPER BOUND
         1         0.62137        0.10000E-01     10.000    

      CHECKING PHASE EQUILIBRIUM RESULTS                                          TIME =    331.65

      CHECKING PHASE EQUILIBRIUM RESULTS                                          TIME =    331.65

 Report Writer entered                                                            Time =    331.66

 Results generated                                                                Time =    331.68

RUN SAVED



 *** SUMMARY OF ERRORS ***

                  PHYSICAL
                  PROPERTY  SYSTEM  SIMULATION
 TERMINAL ERRORS      0        0         0
   SEVERE ERRORS      0        0         1
          ERRORS      0        0         0
        WARNINGS      0        0         0


 *** SUMMARY OF ERRORS ***

                  PHYSICAL
                  PROPERTY  SYSTEM  SIMULATION
 TERMINAL ERRORS      0        0         0
   SEVERE ERRORS      0        0         1
          ERRORS      0        0         0
        WARNINGS      0        0         0


*** INPUT SPECIFICATION MESSAGES ***

 CHANGES WERE MADE TO BLOCK        C1       05/24/2024   13:59:03:99 
 BLOCK C1 RADFRAC
     PARAM NSTAGE=20 ALGORITHM=STANDARD MAXOL=25 DAMPING=NONE
     COL-CONFIG CONDENSER=TOTAL
     FEEDS S9 10 ON-STAGE
     PRODUCTS C1-D 1 L / C1-B 20 L
     P-SPEC 1 0.3 <atm>
     COL-SPECS QN=2. <MW> DP-STAGE=0.01 MOLE-RR=0.774
     SPEC 1 MOLE-FRAC 0.995 COMPS=BENZENE STREAMS=C1-D  &
         SPEC-DESCRIP="Mole purity, 0.995, PRODUCT"
     VARY 1 MOLE-RR 0.01 10.

 PDF updated                                                                      TIME =    338.58
 THIS COPY OF ASPEN PLUS LICENSED TO INDIAN INSTITUTE OF TECH        


Calculations begin                                                              time    338.60


      UOS BLOCK C1       MODEL: RADFRAC                                           TIME =    338.60

       Convergence iterations:
         OL   ML   IL     Err/Tol
          1    9   54      108.31    
          2    8   35      107.19    
          3    6   35      36.545    
          4    8   34      56.322    
          5    6   34      18.855    
          6    8   36      44.042    
          7    6   32      20.395    
          8    8   36      36.919    
          9    6   31      23.981    
         10    8   34      32.097    
         11    6   32      28.125    
         12    7   34      9.7742    
         13    8   34      23.073    
         14    7   33      3.7725    
         15    8   34      17.290    
         16    7   33      2.9398    
         17    8   34      17.576    
         18    7   32      4.1920    
         19    8   34      56.899    
         20    6   32      16.919    
         21    8   36      29.816    
         22    7   33      2.0693    
         23    8   33      19.732    
         24    7   31      4.7535    
         25    8   34      56.420    

  **  ERROR WHILE EXECUTING UNIT OPERATIONS BLOCK: "C1" (MODEL: "RADFRAC")      
                                                               (UDL03.1)        
      RADFRAC NOT CONVERGED IN  25 OUTSIDE LOOP ITERATIONS.                     

      RESULTS FOR MANIPULATED VARIABLES:
      VARIABLE     FINAL VALUE    LOWER BOUND    UPPER BOUND
         1         0.37683        0.10000E-01     10.000    

 Report Writer entered                                                            Time =    338.62

 Results generated                                                                Time =    338.65


*** INPUT SPECIFICATION MESSAGES ***

 CHANGES WERE MADE TO BLOCK        C1       05/24/2024   13:59:13:99 
 BLOCK C1 RADFRAC
     PARAM NSTAGE=20 ALGORITHM=STANDARD MAXOL=25 DAMPING=NONE
     COL-CONFIG CONDENSER=TOTAL
     FEEDS S9 10 ON-STAGE
     PRODUCTS C1-D 1 L / C1-B 20 L
     P-SPEC 1 0.3 <atm>
     COL-SPECS QN=6. <MW> DP-STAGE=0.01 MOLE-RR=0.774
     SPEC 1 MOLE-FRAC 0.995 COMPS=BENZENE STREAMS=C1-D  &
         SPEC-DESCRIP="Mole purity, 0.995, PRODUCT"
     VARY 1 MOLE-RR 0.01 10.

 PDF updated                                                                      TIME =    348.88
 THIS COPY OF ASPEN PLUS LICENSED TO INDIAN INSTITUTE OF TECH        


Calculations begin                                                              time    348.89


      UOS BLOCK C1       MODEL: RADFRAC                                           TIME =    348.89

       Convergence iterations:
         OL   ML   IL     Err/Tol
          1    7   44      154.11    
          2    7   37      118.03    
          3    8   34      114.88    
          4    6   35      67.479    
          5    8   37      52.858    
          6    8   37      74.709    
          7    6   33      30.001    
          8    8   38      65.152    
          9    6   33      17.057    
         10    8   37      27.828    
         11    7   36      18.688    
         12    8   35      64.083    
         13    6   34      21.784    
         14    8   35      41.515    
         15    6   32      27.240    
         16    8   37      45.097    
         17    7   36      7.2667    
         18    8   34      54.936    
         19    6   34      20.824    
         20    8   37      34.959    
         21    8   38      50.127    
         22    6   33      18.542    
         23    8   37      52.641    
         24    6   32      12.258    
         25    8   36      32.431    

  **  ERROR WHILE EXECUTING UNIT OPERATIONS BLOCK: "C1" (MODEL: "RADFRAC")      
                                                               (UDL03.1)        
      RADFRAC NOT CONVERGED IN  25 OUTSIDE LOOP ITERATIONS.                     

      RESULTS FOR MANIPULATED VARIABLES:
      VARIABLE     FINAL VALUE    LOWER BOUND    UPPER BOUND
         1         0.49124        0.10000E-01     10.000    

 Report Writer entered                                                            Time =    348.92

 Results generated                                                                Time =    348.94


*** INPUT SPECIFICATION MESSAGES ***

 CHANGES WERE MADE TO BLOCK        C1       05/24/2024   13:59:26:99 
 BLOCK C1 RADFRAC
     PARAM NSTAGE=20 ALGORITHM=STANDARD MAXOL=25 DAMPING=NONE
     COL-CONFIG CONDENSER=TOTAL
     FEEDS S9 10 ON-STAGE
     PRODUCTS C1-D 1 L / C1-B 20 L
     P-SPEC 1 0.3 <atm>
     COL-SPECS QN=6. <MW> DP-STAGE=0.01 MOLE-RR=0.774

 PDF updated                                                                      TIME =    361.86
 THIS COPY OF ASPEN PLUS LICENSED TO INDIAN INSTITUTE OF TECH        


Calculations begin                                                              time    361.88


      UOS BLOCK C1       MODEL: RADFRAC                                           TIME =    361.88

       Convergence iterations:
         OL   ML   IL     Err/Tol
          1    1    7      81.721    
          2    1    3      49.677    
          3    1    2      27.325    
          4    1    2      8.7061    
          5    1    2      1.2713    
          6    1    3     0.17408    

      CHECKING PHASE EQUILIBRIUM RESULTS                                          TIME =    361.88

      CHECKING PHASE EQUILIBRIUM RESULTS                                          TIME =    361.88

 Report Writer entered                                                            Time =    361.89

 Results generated                                                                Time =    361.91


*** INPUT SPECIFICATION MESSAGES ***

 CHANGES WERE MADE TO BLOCK        C1       05/24/2024   13:59:50:99 
 BLOCK C1 RADFRAC
     PARAM NSTAGE=20 ALGORITHM=STANDARD MAXOL=25 DAMPING=NONE
     COL-CONFIG CONDENSER=TOTAL
     FEEDS S9 10 ON-STAGE
     PRODUCTS C1-D 1 L / C1-B 20 L
     P-SPEC 1 0.3 <atm>
     COL-SPECS QN=7. <MW> DP-STAGE=0.01 MOLE-RR=0.774

 PDF updated                                                                      TIME =    385.38
 THIS COPY OF ASPEN PLUS LICENSED TO INDIAN INSTITUTE OF TECH        


Calculations begin                                                              time    385.39


      UOS BLOCK C1       MODEL: RADFRAC                                           TIME =    385.39

       Convergence iterations:
         OL   ML   IL     Err/Tol
          1    1    6      32.791    
          2    1    3      18.838    
          3    1    2      6.3988    
          4    1    2     0.93235    

      CHECKING PHASE EQUILIBRIUM RESULTS                                          TIME =    385.39

      CHECKING PHASE EQUILIBRIUM RESULTS                                          TIME =    385.39

 Report Writer entered                                                            Time =    385.40

 Results generated                                                                Time =    385.42


*** INPUT SPECIFICATION MESSAGES ***

 BLOCK        C1       IS GENERATED BECAUSE OF OTHER CHANGES 05/24/2024   14:00:17:99 
 BLOCK C1 RADFRAC
     PARAM NSTAGE=20 ALGORITHM=STANDARD MAXOL=25 DAMPING=NONE
     COL-CONFIG CONDENSER=TOTAL
     FEEDS S9 10 ON-STAGE
     PRODUCTS C1-D 1 L / C1-B 20 L
     P-SPEC 1 0.3 <atm>
     COL-SPECS QN=7. <MW> DP-STAGE=0.01 MOLE-RR=0.774

 PDF updated                                                                      TIME =    412.86
 THIS COPY OF ASPEN PLUS LICENSED TO INDIAN INSTITUTE OF TECH        


Calculations begin                                                              time    412.87


      UOS BLOCK C1       MODEL: RADFRAC                                           TIME =    412.88

       Convergence iterations:
         OL   ML   IL     Err/Tol
          1    1    3     0.56379    

      CHECKING PHASE EQUILIBRIUM RESULTS                                          TIME =    412.88

      CHECKING PHASE EQUILIBRIUM RESULTS                                          TIME =    412.88

 Report Writer entered                                                            Time =    412.88

 Results generated                                                                Time =    412.90

RUN SAVED



 *** SUMMARY OF ERRORS ***

                  PHYSICAL
                  PROPERTY  SYSTEM  SIMULATION
 TERMINAL ERRORS      0        0         0
   SEVERE ERRORS      0        0         1
          ERRORS      0        0         2
        WARNINGS      0        0         0


 *** SUMMARY OF ERRORS ***

                  PHYSICAL
                  PROPERTY  SYSTEM  SIMULATION
 TERMINAL ERRORS      0        0         0
   SEVERE ERRORS      0        0         1
          ERRORS      0        0         2
        WARNINGS      0        0         0

RUN SAVED



 *** SUMMARY OF ERRORS ***

                  PHYSICAL
                  PROPERTY  SYSTEM  SIMULATION
 TERMINAL ERRORS      0        0         0
   SEVERE ERRORS      0        0         1
          ERRORS      0        0         2
        WARNINGS      0        0         0


 *** SUMMARY OF ERRORS ***

                  PHYSICAL
                  PROPERTY  SYSTEM  SIMULATION
 TERMINAL ERRORS      0        0         0
   SEVERE ERRORS      0        0         1
          ERRORS      0        0         2
        WARNINGS      0        0         0

RUN SAVED



 *** SUMMARY OF ERRORS ***

                  PHYSICAL
                  PROPERTY  SYSTEM  SIMULATION
 TERMINAL ERRORS      0        0         0
   SEVERE ERRORS      0        0         1
          ERRORS      0        0         2
        WARNINGS      0        0         0


 *** SUMMARY OF ERRORS ***

                  PHYSICAL
                  PROPERTY  SYSTEM  SIMULATION
 TERMINAL ERRORS      0        0         0
   SEVERE ERRORS      0        0         1
          ERRORS      0        0         2
        WARNINGS      0        0         0


*** INPUT SPECIFICATION MESSAGES ***

 Report Writer entered                                                            Time =    450.61

 Results generated                                                                Time =    450.63


*** INPUT SPECIFICATION MESSAGES ***

 CHANGES WERE MADE TO IN-UNITS     05/24/2024   14:00:59:99 
 IN-UNITS MET ENTHALPY='J/kg' ENTHALPY-FLO=kW TEMPERATURE=K  &
         DELTA-T=K INVERSE-PRES='1/bar' SHORT-LENGTH=mm

 OUT-UNITS    IS  NEW 05/24/2024   14:00:59:99 
 OUT-UNITS MET ENTHALPY='J/kg' ENTHALPY-FLO=kW TEMPERATURE=K  &
         DELTA-T=K INVERSE-PRES='1/bar' SHORT-LENGTH=mm

 PDF updated                                                                      TIME =    454.18
 THIS COPY OF ASPEN PLUS LICENSED TO INDIAN INSTITUTE OF TECH        

      CHECKING PHASE EQUILIBRIUM RESULTS                                          TIME =    454.19


Calculations begin                                                              time    454.19


 Report Writer entered                                                            Time =    454.20

 Results generated                                                                Time =    454.22


*** INPUT SPECIFICATION MESSAGES ***

 CHANGES WERE MADE TO BLOCK        C1       05/24/2024   14:02:05:99 
 BLOCK C1 RADFRAC
     PARAM NSTAGE=20 ALGORITHM=STANDARD MAXOL=25 DAMPING=NONE
     COL-CONFIG CONDENSER=TOTAL
     FEEDS S9 10 ON-STAGE
     PRODUCTS C1-D 1 L / C1-B 20 L
     P-SPEC 1 0.3
     COL-SPECS QN=7000.000000 DP-STAGE=9.86923267E-3 MOLE-RR=0.774
     SPEC 1 MOLE-FRAC 0.992764 COMPS=BENZENE STREAMS=C1-D  &
         SPEC-ACTIVE=YES  &
         SPEC-DESCRIP="Mole purity, 0.992764, PRODUCT"
     VARY 2 QN 2000. 100000.

 PDF updated                                                                      TIME =    520.43
 THIS COPY OF ASPEN PLUS LICENSED TO INDIAN INSTITUTE OF TECH        


Calculations begin                                                              time    520.45


      UOS BLOCK C1       MODEL: RADFRAC                                           TIME =    520.45

       Convergence iterations:
         OL   ML   IL     Err/Tol
          1    4   15     0.30916    

      RESULTS FOR MANIPULATED VARIABLES:
      VARIABLE     FINAL VALUE    LOWER BOUND    UPPER BOUND
         1         0.69988E+07    0.20000E+07    0.10000E+09

      CHECKING PHASE EQUILIBRIUM RESULTS                                          TIME =    520.45

      CHECKING PHASE EQUILIBRIUM RESULTS                                          TIME =    520.45

 Report Writer entered                                                            Time =    520.45

 Results generated                                                                Time =    520.48


*** INPUT SPECIFICATION MESSAGES ***

 CHANGES WERE MADE TO BLOCK        C1       05/24/2024   14:02:17:99 
 BLOCK C1 RADFRAC
     PARAM NSTAGE=20 ALGORITHM=STANDARD MAXOL=25 DAMPING=NONE
     COL-CONFIG CONDENSER=TOTAL
     FEEDS S9 10 ON-STAGE
     PRODUCTS C1-D 1 L / C1-B 20 L
     P-SPEC 1 0.3
     COL-SPECS QN=7000.000000 DP-STAGE=9.86923267E-3 MOLE-RR=0.774
     SPEC 1 MOLE-FRAC 0.995 COMPS=BENZENE STREAMS=C1-D  &
         SPEC-ACTIVE=YES SPEC-DESCRIP="Mole purity, 0.995, PRODUCT"
     VARY 2 QN 2000. 100000.

 PDF updated                                                                      TIME =    532.75
 THIS COPY OF ASPEN PLUS LICENSED TO INDIAN INSTITUTE OF TECH        


Calculations begin                                                              time    532.76


      UOS BLOCK C1       MODEL: RADFRAC                                           TIME =    532.76

       Convergence iterations:
         OL   ML   IL     Err/Tol
          1    7   33      202.91    
          2    1   10      392.41    
          3    6   35      171.54    
          4    6   40      275.17    
          5    6   40      138.20    
          6    5   31      116.68    
          7    1   10      129.33    
          8    5   31      146.41    
          9    5   34      101.89    
         10    5   32      45.546    
         11    5   33      26.543    
         12    5   32      17.887    
         13    5   31      10.618    
         14    5   31      7.1282    
         15    5   30      5.1426    
         16    5   30      4.1527    
         17    5   28      3.0135    
         18    5   28      3.3696    
         19    5   29      4.8733    
         20    5   28      1.5375    
         21    5   26      2.9428    
         22    5   27      2.6166    
         23    5   25      8.1359    
         24    5   25      20.539    
         25    5   23      42.948    

  **  ERROR WHILE EXECUTING UNIT OPERATIONS BLOCK: "C1" (MODEL: "RADFRAC")      
                                                               (UDL03.1)        
      RADFRAC NOT CONVERGED IN  25 OUTSIDE LOOP ITERATIONS.                     

      RESULTS FOR MANIPULATED VARIABLES:
      VARIABLE     FINAL VALUE    LOWER BOUND    UPPER BOUND
         1         0.12274E+08    0.20000E+07    0.10000E+09

 Report Writer entered                                                            Time =    532.79

 Results generated                                                                Time =    532.81


*** INPUT SPECIFICATION MESSAGES ***

 CHANGES WERE MADE TO BLOCK        C1       05/24/2024   14:02:28:99 
 BLOCK C1 RADFRAC
     PARAM NSTAGE=20 ALGORITHM=STANDARD MAXOL=25 DAMPING=NONE
     COL-CONFIG CONDENSER=TOTAL
     FEEDS S9 10 ON-STAGE
     PRODUCTS C1-D 1 L / C1-B 20 L
     P-SPEC 1 0.3
     COL-SPECS QN=7000.000000 DP-STAGE=9.86923267E-3 MOLE-RR=0.774

 PDF updated                                                                      TIME =    543.90
 THIS COPY OF ASPEN PLUS LICENSED TO INDIAN INSTITUTE OF TECH        


Calculations begin                                                              time    543.92


      UOS BLOCK C1       MODEL: RADFRAC                                           TIME =    543.92

       Convergence iterations:
         OL   ML   IL     Err/Tol
          1    1    8      329.50    
          2    1    3      60.959    
          3    1    3      40.193    
          4    1    2      17.906    
          5    1    2      4.3851    
          6    1    2      1.7150    
          7    1    3     0.32962    

      CHECKING PHASE EQUILIBRIUM RESULTS                                          TIME =    543.92

      CHECKING PHASE EQUILIBRIUM RESULTS                                          TIME =    543.92

 Report Writer entered                                                            Time =    543.93

 Results generated                                                                Time =    543.96
<reset scope>
<reset scope>
<reset scope>
<reset scope>
<reset scope>
<reset scope>
<reset scope>
<reset scope>
<reset scope>
<reset scope>
<reset scope>
<reset scope>
<reset scope>
<reset scope>
<reset scope>
<reset scope>
<reset scope>
<reset scope>
<reset scope>
<reset scope>
<reset scope>
<reset scope>
<reset scope>


*** INPUT SPECIFICATION MESSAGES ***

 BLOCK        C1       IS GENERATED BECAUSE OF OTHER CHANGES 05/24/2024   14:05:29:09 
 BLOCK C1 RADFRAC
     PARAM NSTAGE=20 ALGORITHM=STANDARD MAXOL=25 DAMPING=NONE
     COL-CONFIG CONDENSER=TOTAL
     FEEDS S9 10 ON-STAGE
     PRODUCTS C1-D 1 L / C1-B 20 L
     P-SPEC 1 0.3
     COL-SPECS QN=7000.000000 DP-STAGE=9.86923267E-3 MOLE-RR=0.774

 CHANGES WERE MADE TO RENAME       05/24/2024   14:05:29:09 
 RENAME
     STREAM  &
         "S16" "C2-D" /  &
         "S15" "C2-B"

 BLOCK        C2       IS NEW 05/24/2024   14:05:29:09 
 BLOCK C2 RADFRAC
     PARAM NSTAGE=24 ALGORITHM=STANDARD MAXOL=25 DAMPING=NONE
     COL-CONFIG CONDENSER=TOTAL
     FEEDS S14 15 ON-STAGE
     PRODUCTS C2-B 24 L / C2-D 1 L
     P-SPEC 1 0.1
     COL-SPECS QN=10.2 <MW> DP-STAGE=0.01 <bar> MOLE-RR=0.661

 BLOCK        B9       IS NEW 05/24/2024   14:05:29:09 
 BLOCK B9 PUMP
     PARAM PRES=10.

 BLOCK        B10      IS NEW 05/24/2024   14:05:29:09 
 BLOCK B10 VALVE
     PARAM P-OUT=0.25

 FLOWSHEET    IS  NEW 05/24/2024   14:05:29:09 
 FLOWSHEET
     BLOCK B1 IN=S1 OUT=S2
     BLOCK B2 IN=S2 OUT=S3
     BLOCK B4 IN=S4 OUT=S5
     BLOCK B5 IN=S5 OUT=S6
     BLOCK B3 IN=S3 S6 OUT=S7
     BLOCK B6 IN=S7 OUT=S8
     BLOCK B7 IN=S8 OUT=S9
     BLOCK C1 IN=S9 OUT=C1-D C1-B
     BLOCK B9 IN=C1-B OUT=S12
     BLOCK B10 IN=S12 OUT=S14
     BLOCK C2 IN=S14 OUT=C2-D C2-B

 PDF updated                                                                      TIME =    724.11
 THIS COPY OF ASPEN PLUS LICENSED TO INDIAN INSTITUTE OF TECH        
 *** FLOWSHEET ANALYSIS MESSAGES ***

 FLOWSHEET CONNECTIVITY BY STREAMS       

   STREAM     SOURCE     DEST           STREAM     SOURCE     DEST
   S1         ----       B1             S4         ----       B4      
   S2         B1         B2             S3         B2         B3      
   S5         B4         B5             S6         B5         B3      
   S7         B3         B6             S8         B6         B7      
   S9         B7         C1             C1-D       C1         ----    
   C1-B       C1         B9             S12        B9         B10     
   S14        B10        C2             C2-D       C2         ----    
   C2-B       C2         ----                                         

 FLOWSHEET CONNECTIVITY BY BLOCKS        

   BLOCK        INLETS                         OUTLETS
   B1           S1                             S2                          
   B2           S2                             S3                          
   B4           S4                             S5                          
   B5           S5                             S6                          
   B3           S3 S6                          S7                          
   B6           S7                             S8                          
   B7           S8                             S9                          
   C1           S9                             C1-D C1-B                   
   B9           C1-B                           S12                         
   B10          S12                            S14                         
   C2           S14                            C2-D C2-B                   

      COMPUTATION ORDER FOR THE FLOWSHEET IS:
      B4 B5 B1 B2 B3 B6 B7 C1 B9 B10 C2 


Calculations begin                                                              time    724.13


      UOS BLOCK C1       MODEL: RADFRAC                                           TIME =    724.13

       Convergence iterations:
         OL   ML   IL     Err/Tol
          1    1    3     0.22171    

      UOS BLOCK B9       MODEL: PUMP                                              TIME =    724.13
      VOL-FLOW   =  0.2795E-01 , DELTA P    =  0.9639E+06 , PUMP EFF   =  0.7019    
      FLUID PWR  =  0.2694E+05 , BRAKE PWR  =  0.3837E+05 , ELEC PWR   =  0.3837E+05

      UOS BLOCK B10      MODEL: VALVE                                             TIME =    724.13
      KODE = 1  NTRIAL =   6  T = 338.9407  P =  25331.2      V = 0.108745      Q =  0.00000    
      OUTLET PRES =   0.2533E+05 PRES DROP =   0.9879E+06

      UOS BLOCK C2       MODEL: RADFRAC                                           TIME =    724.13

       Convergence iterations:
         OL   ML   IL     Err/Tol
          1    1    3      11.265    
          2    1    3     0.31566    

      GENERATING RESULTS FOR UOS BLOCK B9       MODEL: PUMP                       TIME =    724.13
      KODE = 5  NTRIAL =   4  T = 356.9475  P =  49397.5      V =  0.00000      Q = 2.488009E-04
      VOL-FLOW   =  0.2795E-01 , DELTA P    =  0.9639E+06 , PUMP EFF   =  0.7019    
      FLUID PWR  =  0.2694E+05 , BRAKE PWR  =  0.3837E+05 , ELEC PWR   =  0.3837E+05
      NPSH AVAIL =   0.000    

      CHECKING PHASE EQUILIBRIUM RESULTS                                          TIME =    724.13

      CHECKING PHASE EQUILIBRIUM RESULTS                                          TIME =    724.13

 Report Writer entered                                                            Time =    724.13

 Results generated                                                                Time =    724.17

 Report Writer entered                                                            Time =    735.90

 Results generated                                                                Time =    735.93

RUN SAVED



 *** SUMMARY OF ERRORS ***

                  PHYSICAL
                  PROPERTY  SYSTEM  SIMULATION
 TERMINAL ERRORS      0        0         0
   SEVERE ERRORS      0        0         1
          ERRORS      0        0         3
        WARNINGS      0        0         0


 *** SUMMARY OF ERRORS ***

                  PHYSICAL
                  PROPERTY  SYSTEM  SIMULATION
 TERMINAL ERRORS      0        0         0
   SEVERE ERRORS      0        0         1
          ERRORS      0        0         3
        WARNINGS      0        0         0
<reset scope>
<reset scope>


*** INPUT SPECIFICATION MESSAGES ***

 CHANGES WERE MADE TO BLOCK        B3       05/24/2024   14:07:19:99 
 BLOCK B3 RCSTR
     PARAM VOL=2.00000000E+5 TEMP=434. PRES=20. NPHASE=1 PHASE=L
     BLOCK-OPTION FREE-WATER=NO
     REACTIONS RXN-IDS=R-1
     PARAM-MSSTR VAPOR-INLET=NO

 CHANGES WERE MADE TO BLOCK        B7       05/24/2024   14:07:19:99 
 BLOCK B7 RCSTR
     PARAM VOL=200. TEMP=432. PRES=19. NPHASE=1 PHASE=L
     BLOCK-OPTION FREE-WATER=NO
     REACTIONS RXN-IDS=R-1
     PARAM-MSSTR VAPOR-INLET=NO

 BLOCK        C2       IS GENERATED BECAUSE OF OTHER CHANGES 05/24/2024   14:07:19:99 
 BLOCK C2 RADFRAC
     PARAM NSTAGE=24 ALGORITHM=STANDARD MAXOL=25 DAMPING=NONE
     COL-CONFIG CONDENSER=TOTAL
     FEEDS S14 15 ON-STAGE
     PRODUCTS C2-B 24 L / C2-D 1 L
     P-SPEC 1 0.1
     COL-SPECS QN=10.2 <MW> DP-STAGE=0.01 <bar> MOLE-RR=0.661

 STREAM       S17      IS NEW 05/24/2024   14:07:19:99 
 STREAM S17
     SUBSTREAM MIXED TEMP=432. PRES=19. MOLE-FLOW=282.
     MOLE-FRAC EB 0.001 / DEB 0.999

 FLOWSHEET    IS  NEW 05/24/2024   14:07:19:99 
 FLOWSHEET
     BLOCK B1 IN=S1 OUT=S2
     BLOCK B2 IN=S2 OUT=S3
     BLOCK B4 IN=S4 OUT=S5
     BLOCK B5 IN=S5 OUT=S6
     BLOCK B3 IN=S3 S6 OUT=S7
     BLOCK B6 IN=S7 OUT=S8
     BLOCK B7 IN=S8 S17 OUT=S9
     BLOCK C1 IN=S9 OUT=C1-D C1-B
     BLOCK B9 IN=C1-B OUT=S12
     BLOCK B10 IN=S12 OUT=S14
     BLOCK C2 IN=S14 OUT=C2-D C2-B

 PDF updated                                                                      TIME =    834.68
 THIS COPY OF ASPEN PLUS LICENSED TO INDIAN INSTITUTE OF TECH        

      CHECKING PHASE EQUILIBRIUM RESULTS                                          TIME =    834.69
 *** FLOWSHEET ANALYSIS MESSAGES ***

 FLOWSHEET CONNECTIVITY BY STREAMS       

   STREAM     SOURCE     DEST           STREAM     SOURCE     DEST
   S17        ----       B7             S1         ----       B1      
   S4         ----       B4             S2         B1         B2      
   S3         B2         B3             S5         B4         B5      
   S6         B5         B3             S7         B3         B6      
   S8         B6         B7             S9         B7         C1      
   C1-D       C1         ----           C1-B       C1         B9      
   S12        B9         B10            S14        B10        C2      
   C2-D       C2         ----           C2-B       C2         ----    

 FLOWSHEET CONNECTIVITY BY BLOCKS        

   BLOCK        INLETS                         OUTLETS
   B1           S1                             S2                          
   B2           S2                             S3                          
   B4           S4                             S5                          
   B5           S5                             S6                          
   B3           S3 S6                          S7                          
   B6           S7                             S8                          
   B7           S8 S17                         S9                          
   C1           S9                             C1-D C1-B                   
   B9           C1-B                           S12                         
   B10          S12                            S14                         
   C2           S14                            C2-D C2-B                   

      COMPUTATION ORDER FOR THE FLOWSHEET IS:
      B4 B5 B1 B2 B3 B6 B7 C1 B9 B10 C2 


Calculations begin                                                              time    834.70


      UOS BLOCK B3       MODEL: RCSTR                                             TIME =    834.70
      KODE = 2   NO. TEMP ITER =    1     TEMP =  434.000    
      KPHASE =    2 KODE =    2 T =  434.000     P = 2.026500E+06 Q =-1.191566E+07
      REACTOR DUTY = -0.119157E+08  VOLUME =   200.000      RES TIME =   3631.31    
      REACTOR T =   434.000      P =  2.026500E+06  V =   0.00000    

      UOS BLOCK B6       MODEL: VALVE                                             TIME =    834.70
      NO. TEMP ITER =    5     TEMP =  434.019    
      KODE = 1  NTRIAL =   5  T = 434.0187  P = 1.925175E+06  V =  0.00000      Q =  0.00000    
      OUTLET PRES =   0.1925E+07 PRES DROP =   0.1013E+06

      ENTHALPY CALCULATION FOR INLET STREAM S17 OF BLOCK B7                       TIME =    834.70
      KODE = 2  NTRIAL =   2  T = 432.0000  P = 1.925175E+06  V =  0.00000      Q =  0.00000    

      UOS BLOCK B7       MODEL: RCSTR                                             TIME =    834.70
      KODE = 2   NO. TEMP ITER =    1     TEMP =  432.000    
      KPHASE =    2 KODE =    2 T =  432.000     P = 1.925175E+06 Q = -202502.    
      REACTOR DUTY =  -202502.      VOLUME =  0.200000      RES TIME =   2.88071    
      REACTOR T =   432.000      P =  1.925175E+06  V =   0.00000    

      UOS BLOCK C1       MODEL: RADFRAC                                           TIME =    834.70

       Convergence iterations:
         OL   ML   IL     Err/Tol
          1    1    9      67.554    
          2    1    4      9.6894    
          3    1    3      5.4546    
          4    1    3      2.2715    
          5    1    3     0.42802    

      UOS BLOCK B9       MODEL: PUMP                                              TIME =    834.71
      VOL-FLOW   =  0.4023E-01 , DELTA P    =  0.9639E+06 , PUMP EFF   =  0.7346    
      FLUID PWR  =  0.3878E+05 , BRAKE PWR  =  0.5279E+05 , ELEC PWR   =  0.5279E+05

      UOS BLOCK B10      MODEL: VALVE                                             TIME =    834.71
      KODE = 1  NTRIAL =   7  T = 353.2723  P =  25331.2      V = 0.113285      Q =  0.00000    
      OUTLET PRES =   0.2533E+05 PRES DROP =   0.9879E+06

      UOS BLOCK C2       MODEL: RADFRAC                                           TIME =    834.71

       Convergence iterations:
         OL   ML   IL     Err/Tol
          1    1    7      61.981    
          2    1    3      2.7447    
          3    1    3     0.56075    

      GENERATING RESULTS FOR UOS BLOCK B9       MODEL: PUMP                       TIME =    834.71
      KODE = 5  NTRIAL =   4  T = 369.9206  P =  49397.4      V =  0.00000      Q =-1.571206E-03
      VOL-FLOW   =  0.4023E-01 , DELTA P    =  0.9639E+06 , PUMP EFF   =  0.7346    
      FLUID PWR  =  0.3878E+05 , BRAKE PWR  =  0.5279E+05 , ELEC PWR   =  0.5279E+05
      NPSH AVAIL =   0.000    

      CHECKING PHASE EQUILIBRIUM RESULTS                                          TIME =    834.71

      CHECKING PHASE EQUILIBRIUM RESULTS                                          TIME =    834.71

 Report Writer entered                                                            Time =    834.72

 Results generated                                                                Time =    834.77

 Report Writer entered                                                            Time =    840.92

 Results generated                                                                Time =    840.94

RUN SAVED



 *** SUMMARY OF ERRORS ***

                  PHYSICAL
                  PROPERTY  SYSTEM  SIMULATION
 TERMINAL ERRORS      0        0         0
   SEVERE ERRORS      0        0         1
          ERRORS      0        0         3
        WARNINGS      0        0         0


 *** SUMMARY OF ERRORS ***

                  PHYSICAL
                  PROPERTY  SYSTEM  SIMULATION
 TERMINAL ERRORS      0        0         0
   SEVERE ERRORS      0        0         1
          ERRORS      0        0         3
        WARNINGS      0        0         0


*** INPUT SPECIFICATION MESSAGES ***

 CHANGES WERE MADE TO BLOCK        C1       05/24/2024   14:08:11:99 
 BLOCK C1 RADFRAC
     PARAM NSTAGE=20 ALGORITHM=STANDARD MAXOL=25 DAMPING=NONE
     COL-CONFIG CONDENSER=TOTAL
     FEEDS S9 10 ON-STAGE
     PRODUCTS C1-D 1 L / C1-B 20 L
     P-SPEC 1 0.3
     COL-SPECS QN=8000. DP-STAGE=9.86923267E-3 MOLE-RR=0.774

 BLOCK        C2       IS GENERATED BECAUSE OF OTHER CHANGES 05/24/2024   14:08:11:99 
 BLOCK C2 RADFRAC
     PARAM NSTAGE=24 ALGORITHM=STANDARD MAXOL=25 DAMPING=NONE
     COL-CONFIG CONDENSER=TOTAL
     FEEDS S14 15 ON-STAGE
     PRODUCTS C2-B 24 L / C2-D 1 L
     P-SPEC 1 0.1
     COL-SPECS QN=10.2 <MW> DP-STAGE=0.01 <bar> MOLE-RR=0.661

 PDF updated                                                                      TIME =    886.68
 THIS COPY OF ASPEN PLUS LICENSED TO INDIAN INSTITUTE OF TECH        


Calculations begin                                                              time    886.70


      UOS BLOCK C1       MODEL: RADFRAC                                           TIME =    886.70

       Convergence iterations:
         OL   ML   IL     Err/Tol
          1    1    8      23.878    
          2    1    4      13.844    
          3    1    3      5.7366    
          4    1    3      1.2021    
          5    1    3     0.26140    

      UOS BLOCK B9       MODEL: PUMP                                              TIME =    886.70
      VOL-FLOW   =  0.3905E-01 , DELTA P    =  0.9639E+06 , PUMP EFF   =  0.7321    
      FLUID PWR  =  0.3764E+05 , BRAKE PWR  =  0.5142E+05 , ELEC PWR   =  0.5142E+05

      UOS BLOCK B10      MODEL: VALVE                                             TIME =    886.70
      KODE = 1  NTRIAL =   6  T = 357.4806  P =  25331.2      V = 0.113870      Q =  0.00000    
      OUTLET PRES =   0.2533E+05 PRES DROP =   0.9879E+06

      UOS BLOCK C2       MODEL: RADFRAC                                           TIME =    886.70

       Convergence iterations:
         OL   ML   IL     Err/Tol
          1    1    7      28.694    
          2    1    3      1.8804    
          3    1    3     0.55394    

      GENERATING RESULTS FOR UOS BLOCK B9       MODEL: PUMP                       TIME =    886.71
      KODE = 5  NTRIAL =   4  T = 374.0714  P =  49396.5      V =  0.00000      Q =-2.072992E-02
      VOL-FLOW   =  0.3905E-01 , DELTA P    =  0.9639E+06 , PUMP EFF   =  0.7321    
      FLUID PWR  =  0.3764E+05 , BRAKE PWR  =  0.5142E+05 , ELEC PWR   =  0.5142E+05
      NPSH AVAIL =   0.000    

      CHECKING PHASE EQUILIBRIUM RESULTS                                          TIME =    886.71

      CHECKING PHASE EQUILIBRIUM RESULTS                                          TIME =    886.71

 Report Writer entered                                                            Time =    886.71

 Results generated                                                                Time =    886.75


*** INPUT SPECIFICATION MESSAGES ***

 CHANGES WERE MADE TO BLOCK        C1       05/24/2024   14:08:29:99 
 BLOCK C1 RADFRAC
     PARAM NSTAGE=20 ALGORITHM=STANDARD MAXOL=25 DAMPING=NONE
     COL-CONFIG CONDENSER=TOTAL
     FEEDS S9 10 ON-STAGE
     PRODUCTS C1-D 1 L / C1-B 20 L
     P-SPEC 1 0.3
     COL-SPECS QN=8.13 <MW> DP-STAGE=9.86923267E-3 MOLE-RR=0.774

 PDF updated                                                                      TIME =    904.76
 THIS COPY OF ASPEN PLUS LICENSED TO INDIAN INSTITUTE OF TECH        

      CHECKING PHASE EQUILIBRIUM RESULTS                                          TIME =    904.77


Calculations begin                                                              time    904.77


      UOS BLOCK C1       MODEL: RADFRAC                                           TIME =    904.77

       Convergence iterations:
         OL   ML   IL     Err/Tol
          1    1    7      2.9636    
          2    1    4      1.6657    
          3    1    3     0.74170    

      UOS BLOCK B9       MODEL: PUMP                                              TIME =    904.78
      VOL-FLOW   =  0.3890E-01 , DELTA P    =  0.9639E+06 , PUMP EFF   =  0.7317    
      FLUID PWR  =  0.3750E+05 , BRAKE PWR  =  0.5124E+05 , ELEC PWR   =  0.5124E+05

      UOS BLOCK B10      MODEL: VALVE                                             TIME =    904.78
      KODE = 1  NTRIAL =   6  T = 358.0651  P =  25331.2      V = 0.114001      Q =  0.00000    
      OUTLET PRES =   0.2533E+05 PRES DROP =   0.9879E+06

      UOS BLOCK C2       MODEL: RADFRAC                                           TIME =    904.78

       Convergence iterations:
         OL   ML   IL     Err/Tol
          1    1    6      5.1390    
          2    1    4     0.26786    

      GENERATING RESULTS FOR UOS BLOCK B9       MODEL: PUMP                       TIME =    904.78
      KODE = 5  NTRIAL =   4  T = 374.6611  P =  49397.3      V =  0.00000      Q =-3.580901E-03
      VOL-FLOW   =  0.3890E-01 , DELTA P    =  0.9639E+06 , PUMP EFF   =  0.7317    
      FLUID PWR  =  0.3750E+05 , BRAKE PWR  =  0.5124E+05 , ELEC PWR   =  0.5124E+05
      NPSH AVAIL =   0.000    

      CHECKING PHASE EQUILIBRIUM RESULTS                                          TIME =    904.78

      CHECKING PHASE EQUILIBRIUM RESULTS                                          TIME =    904.78

 Report Writer entered                                                            Time =    904.78

 Results generated                                                                Time =    904.82


*** INPUT SPECIFICATION MESSAGES ***

 CHANGES WERE MADE TO BLOCK        C1       05/24/2024   14:08:56:99 
 BLOCK C1 RADFRAC
     PARAM NSTAGE=20 ALGORITHM=STANDARD MAXOL=25 DAMPING=NONE
     COL-CONFIG CONDENSER=TOTAL
     FEEDS S9 10 ON-STAGE
     PRODUCTS C1-D 1 L / C1-B 20 L
     P-SPEC 1 0.3
     COL-SPECS QN=8.13 <MW> DP-STAGE=9.86923267E-3 MOLE-RR=0.774
     SPEC 1 MOLE-FRAC 0.993434 COMPS=BENZENE STREAMS=C1-D  &
         SPEC-ACTIVE=YES  &
         SPEC-DESCRIP="Mole purity, 0.993434, PRODUCT"
     VARY 1 MOLE-RR 0.01 10. VARY-ACTIVE=YES

 PDF updated                                                                      TIME =    931.66
 THIS COPY OF ASPEN PLUS LICENSED TO INDIAN INSTITUTE OF TECH        

      CHECKING PHASE EQUILIBRIUM RESULTS                                          TIME =    931.67


Calculations begin                                                              time    931.68


      UOS BLOCK C1       MODEL: RADFRAC                                           TIME =    931.68

       Convergence iterations:
         OL   ML   IL     Err/Tol
          1    4   17     0.46964    

      RESULTS FOR MANIPULATED VARIABLES:
      VARIABLE     FINAL VALUE    LOWER BOUND    UPPER BOUND
         1         0.77403        0.10000E-01     10.000    

      UOS BLOCK B9       MODEL: PUMP                                              TIME =    931.68
      VOL-FLOW   =  0.3890E-01 , DELTA P    =  0.9639E+06 , PUMP EFF   =  0.7317    
      FLUID PWR  =  0.3750E+05 , BRAKE PWR  =  0.5124E+05 , ELEC PWR   =  0.5124E+05

      UOS BLOCK B10      MODEL: VALVE                                             TIME =    931.68
      KODE = 1  NTRIAL =   6  T = 358.0682  P =  25331.2      V = 0.114002      Q =  0.00000    
      OUTLET PRES =   0.2533E+05 PRES DROP =   0.9879E+06

      UOS BLOCK C2       MODEL: RADFRAC                                           TIME =    931.68

       Convergence iterations:
         OL   ML   IL     Err/Tol
          1    1    4     0.53643E-01

      GENERATING RESULTS FOR UOS BLOCK B9       MODEL: PUMP                       TIME =    931.68
      KODE = 5  NTRIAL =   4  T = 374.6644  P =  49397.6      V =  0.00000      Q = 1.777774E-03
      VOL-FLOW   =  0.3890E-01 , DELTA P    =  0.9639E+06 , PUMP EFF   =  0.7317    
      FLUID PWR  =  0.3750E+05 , BRAKE PWR  =  0.5124E+05 , ELEC PWR   =  0.5124E+05
      NPSH AVAIL =   0.000    

      CHECKING PHASE EQUILIBRIUM RESULTS                                          TIME =    931.68

      CHECKING PHASE EQUILIBRIUM RESULTS                                          TIME =    931.68

 Report Writer entered                                                            Time =    931.69

 Results generated                                                                Time =    931.73

RUN SAVED



 *** SUMMARY OF ERRORS ***

                  PHYSICAL
                  PROPERTY  SYSTEM  SIMULATION
 TERMINAL ERRORS      0        0         0
   SEVERE ERRORS      0        0         1
          ERRORS      0        0         3
        WARNINGS      0        0         0


 *** SUMMARY OF ERRORS ***

                  PHYSICAL
                  PROPERTY  SYSTEM  SIMULATION
 TERMINAL ERRORS      0        0         0
   SEVERE ERRORS      0        0         1
          ERRORS      0        0         3
        WARNINGS      0        0         0


*** INPUT SPECIFICATION MESSAGES ***

 CHANGES WERE MADE TO BLOCK        C1       05/24/2024   14:09:06:99 
 BLOCK C1 RADFRAC
     PARAM NSTAGE=20 ALGORITHM=STANDARD MAXOL=25 DAMPING=NONE
     COL-CONFIG CONDENSER=TOTAL
     FEEDS S9 10 ON-STAGE
     PRODUCTS C1-D 1 L / C1-B 20 L
     P-SPEC 1 0.3
     COL-SPECS QN=8.13 <MW> DP-STAGE=9.86923267E-3 MOLE-RR=0.774
     SPEC 1 MOLE-FRAC 0.995 COMPS=BENZENE STREAMS=C1-D  &
         SPEC-ACTIVE=YES SPEC-DESCRIP="Mole purity, 0.995, PRODUCT"
     VARY 1 MOLE-RR 0.01 10. VARY-ACTIVE=YES

 PDF updated                                                                      TIME =    941.76
 THIS COPY OF ASPEN PLUS LICENSED TO INDIAN INSTITUTE OF TECH        

      CHECKING PHASE EQUILIBRIUM RESULTS                                          TIME =    941.77


Calculations begin                                                              time    941.78


      UOS BLOCK C1       MODEL: RADFRAC                                           TIME =    941.78

       Convergence iterations:
         OL   ML   IL     Err/Tol
          1    7   51      209.22    
          2    7   53      116.87    
          3    5   27      39.834    
          4    7   32      50.053    
          5    6   41      31.221    
          6    8   38      42.958    
          7    6   41      24.320    
          8    8   37      21.087    
          9    6   41      56.186    
         10    7   38      27.034    
         11    8   34      51.877    
         12    7   35      6.1568    
         13    8   35      65.477    
         14    6   41      13.195    
         15    8   35      38.650    
         16    7   37      4.4795    
         17    8   36      65.845    
         18    6   42      13.396    
         19    8   36      55.563    
         20    6   41      23.727    
         21    8   37      38.789    
         22    6   41      24.153    
         23    8   34      60.254    
         24    7   37      8.0590    
         25    8   35      62.864    

  **  ERROR WHILE EXECUTING UNIT OPERATIONS BLOCK: "C1" (MODEL: "RADFRAC")      
                                                               (UDL03.1)        
      RADFRAC NOT CONVERGED IN  25 OUTSIDE LOOP ITERATIONS.                     

      RESULTS FOR MANIPULATED VARIABLES:
      VARIABLE     FINAL VALUE    LOWER BOUND    UPPER BOUND
         1         0.49231        0.10000E-01     10.000    

      UOS BLOCK B9       MODEL: PUMP                                              TIME =    941.80
      VOL-FLOW   =  0.3559E-01 , DELTA P    =  0.9639E+06 , PUMP EFF   =  0.7240    
      FLUID PWR  =  0.3431E+05 , BRAKE PWR  =  0.4739E+05 , ELEC PWR   =  0.4739E+05

      UOS BLOCK B10      MODEL: VALVE                                             TIME =    941.80
      KODE = 1  NTRIAL =   5  T = 376.1647  P =  25331.2      V = 0.135581      Q =  0.00000    
      OUTLET PRES =   0.2533E+05 PRES DROP =   0.9879E+06

      UOS BLOCK C2       MODEL: RADFRAC                                           TIME =    941.80

       Convergence iterations:
         OL   ML   IL     Err/Tol
          1    1    9      328.34    
          2    1    3      17.506    
          3    1    3      1.0518    
          4    1    4     0.10365    

      GENERATING RESULTS FOR UOS BLOCK B9       MODEL: PUMP                       TIME =    941.81
      KODE = 5  NTRIAL =   3  T = 396.1457  P =  49713.5      V =  0.00000      Q =  5.70791    

      INFORMATION WHILE GENERATING RESULTS FOR UNIT OPERATIONS BLOCK: "B9"      
      (MODEL: "PUMP")                                          (ANPSH.4)        
      NET POSITIVE SUCTION HEAD IS LESS THAN ZERO                               
      VOL-FLOW   =  0.3559E-01 , DELTA P    =  0.9639E+06 , PUMP EFF   =  0.7240    
      FLUID PWR  =  0.3431E+05 , BRAKE PWR  =  0.4739E+05 , ELEC PWR   =  0.4739E+05
      NPSH AVAIL = -0.4094    

      CHECKING PHASE EQUILIBRIUM RESULTS                                          TIME =    941.81

      CHECKING PHASE EQUILIBRIUM RESULTS                                          TIME =    941.81

 Report Writer entered                                                            Time =    941.81

 Results generated                                                                Time =    941.85


*** INPUT SPECIFICATION MESSAGES ***

 Report Writer entered                                                            Time =    945.98

 Results generated                                                                Time =    946.01


*** INPUT SPECIFICATION MESSAGES ***

 CHANGES WERE MADE TO BLOCK        C1       05/24/2024   14:09:21:99 
 BLOCK C1 RADFRAC
     PARAM NSTAGE=20 ALGORITHM=STANDARD MAXOL=25 DAMPING=NONE
     COL-CONFIG CONDENSER=TOTAL
     FEEDS S9 10 ON-STAGE
     PRODUCTS C1-D 1 L / C1-B 20 L
     P-SPEC 1 0.3
     COL-SPECS QN=8.13 <MW> DP-STAGE=9.86923267E-3 MOLE-RR=0.774

 PDF updated                                                                      TIME =    956.34
 THIS COPY OF ASPEN PLUS LICENSED TO INDIAN INSTITUTE OF TECH        

      CHECKING PHASE EQUILIBRIUM RESULTS                                          TIME =    956.35


Calculations begin                                                              time    956.36


      UOS BLOCK C1       MODEL: RADFRAC                                           TIME =    956.36

       Convergence iterations:
         OL   ML   IL     Err/Tol
          1    1    9      173.56    
          2    1    4      29.484    
          3    1    3      18.149    
          4    1    3      8.8189    
          5    1    3      2.6838    
          6    1    3     0.93022    

      UOS BLOCK B9       MODEL: PUMP                                              TIME =    956.36
      VOL-FLOW   =  0.3889E-01 , DELTA P    =  0.9639E+06 , PUMP EFF   =  0.7317    
      FLUID PWR  =  0.3749E+05 , BRAKE PWR  =  0.5123E+05 , ELEC PWR   =  0.5123E+05

      UOS BLOCK B10      MODEL: VALVE                                             TIME =    956.36
      KODE = 1  NTRIAL =   6  T = 358.1134  P =  25331.2      V = 0.114019      Q =  0.00000    
      OUTLET PRES =   0.2533E+05 PRES DROP =   0.9879E+06

      UOS BLOCK C2       MODEL: RADFRAC                                           TIME =    956.36

       Convergence iterations:
         OL   ML   IL     Err/Tol
          1    1    8      288.14    
          2    1    3      18.817    
          3    1    3      3.5441    
          4    1    3     0.16277    

      GENERATING RESULTS FOR UOS BLOCK B9       MODEL: PUMP                       TIME =    956.36
      KODE = 5  NTRIAL =   4  T = 374.7110  P =  49399.1      V =  0.00000      Q = 3.461099E-02
      VOL-FLOW   =  0.3889E-01 , DELTA P    =  0.9639E+06 , PUMP EFF   =  0.7317    
      FLUID PWR  =  0.3749E+05 , BRAKE PWR  =  0.5123E+05 , ELEC PWR   =  0.5123E+05
      NPSH AVAIL =   0.000    

      CHECKING PHASE EQUILIBRIUM RESULTS                                          TIME =    956.36

      CHECKING PHASE EQUILIBRIUM RESULTS                                          TIME =    956.36

 Report Writer entered                                                            Time =    956.37

 Results generated                                                                Time =    956.41


*** INPUT SPECIFICATION MESSAGES ***

 BLOCK        C1       IS GENERATED BECAUSE OF OTHER CHANGES 05/24/2024   14:11:10:09 
 BLOCK C1 RADFRAC
     PARAM NSTAGE=20 ALGORITHM=STANDARD MAXOL=25 DAMPING=NONE
     COL-CONFIG CONDENSER=TOTAL
     FEEDS S9 10 ON-STAGE
     PRODUCTS C1-D 1 L / C1-B 20 L
     P-SPEC 1 0.3
     COL-SPECS QN=8.13 <MW> DP-STAGE=9.86923267E-3 MOLE-RR=0.774

 CHANGES WERE MADE TO BLOCK        C2       05/24/2024   14:11:10:09 
 BLOCK C2 RADFRAC
     PARAM NSTAGE=24 ALGORITHM=STANDARD MAXOL=25 DAMPING=NONE
     COL-CONFIG CONDENSER=TOTAL
     FEEDS S14 15 ON-STAGE
     PRODUCTS C2-B 24 L / C2-D 1 L
     P-SPEC 1 0.1
     COL-SPECS QN=10.2 <MW> DP-STAGE=0.01 <bar> MOLE-RR=0.661
     SPEC 1 MOLE-FRAC 0.721 COMPS=EB STREAMS=C2-D  &
         SPEC-DESCRIP="Mole purity, 0.721, PRODUCT"
     VARY 1 MOLE-RR 0.01 10.

 PDF updated                                                                      TIME =   1065.09
 THIS COPY OF ASPEN PLUS LICENSED TO INDIAN INSTITUTE OF TECH        


Calculations begin                                                              time   1065.11


      UOS BLOCK C1       MODEL: RADFRAC                                           TIME =   1065.11

       Convergence iterations:
         OL   ML   IL     Err/Tol
          1    1    6     0.31289    

      UOS BLOCK B9       MODEL: PUMP                                              TIME =   1065.11
      VOL-FLOW   =  0.3890E-01 , DELTA P    =  0.9639E+06 , PUMP EFF   =  0.7317    
      FLUID PWR  =  0.3749E+05 , BRAKE PWR  =  0.5124E+05 , ELEC PWR   =  0.5124E+05

      UOS BLOCK B10      MODEL: VALVE                                             TIME =   1065.11
      KODE = 1  NTRIAL =   6  T = 358.0768  P =  25331.2      V = 0.114005      Q =  0.00000    
      OUTLET PRES =   0.2533E+05 PRES DROP =   0.9879E+06

      UOS BLOCK C2       MODEL: RADFRAC                                           TIME =   1065.11

       Convergence iterations:
         OL   ML   IL     Err/Tol
          1    5   17     0.34785    

      RESULTS FOR MANIPULATED VARIABLES:
      VARIABLE     FINAL VALUE    LOWER BOUND    UPPER BOUND
         1         0.66131        0.10000E-01     10.000    

      GENERATING RESULTS FOR UOS BLOCK B9       MODEL: PUMP                       TIME =   1065.11
      KODE = 5  NTRIAL =   4  T = 374.6733  P =  49397.8      V =  0.00000      Q = 7.011078E-03
      VOL-FLOW   =  0.3890E-01 , DELTA P    =  0.9639E+06 , PUMP EFF   =  0.7317    
      FLUID PWR  =  0.3749E+05 , BRAKE PWR  =  0.5124E+05 , ELEC PWR   =  0.5124E+05
      NPSH AVAIL =   0.000    

      CHECKING PHASE EQUILIBRIUM RESULTS                                          TIME =   1065.11

      CHECKING PHASE EQUILIBRIUM RESULTS                                          TIME =   1065.11

 Report Writer entered                                                            Time =   1065.12

 Results generated                                                                Time =   1065.16


*** INPUT SPECIFICATION MESSAGES ***

 CHANGES WERE MADE TO BLOCK        C2       05/24/2024   14:12:03:99 
 BLOCK C2 RADFRAC
     PARAM NSTAGE=24 ALGORITHM=STANDARD MAXOL=25 DAMPING=NONE
     COL-CONFIG CONDENSER=TOTAL
     FEEDS S14 15 ON-STAGE
     PRODUCTS C2-B 24 L / C2-D 1 L
     P-SPEC 1 0.1
     COL-SPECS QN=10.2 <MW> DP-STAGE=0.01 <bar> MOLE-RR=0.661
     SPEC 1 MOLE-FRAC 0.721 COMPS=EB STREAMS=C2-D  &
         SPEC-DESCRIP="Mole purity, 0.721, PRODUCT"
     SPEC 2 MOLE-FRAC 0.8775 COMPS=DEB STREAMS=C2-B  &
         SPEC-DESCRIP="Mole purity, 0.8775, PRODUCT"
     VARY 1 MOLE-RR 0.01 10.
     VARY 2 QN 5000. 1000000.

 PDF updated                                                                      TIME =   1118.84
 THIS COPY OF ASPEN PLUS LICENSED TO INDIAN INSTITUTE OF TECH        

      CHECKING PHASE EQUILIBRIUM RESULTS                                          TIME =   1118.85


Calculations begin                                                              time   1118.86


      UOS BLOCK C2       MODEL: RADFRAC                                           TIME =   1118.86

       Convergence iterations:
         OL   ML   IL     Err/Tol
          1   11   62      12.155    
          2    6   25      12.185    
          3    5   20      25.071    
          4    5   17      24.558    
          5    5   17      22.418    
          6    5   14      20.181    
          7    5   12      18.120    
          8    5   12      16.250    
          9    5   12      14.558    
         10    6   16      9.2705    
         11    8   17      6.4759    
         12    8   15      2.2694    
         13    7   13      3.8656    
         14    8   17     0.40849    
         15    6   11      1.2693    
         16    7   14      1.5306    
         17    8   15     0.43822    
         18    6   11     0.73984    
         19    7   15      1.4596    
         20    8   17     0.25958    
         21    6   11     0.87466    
         22    7   14      1.6834    
         23    8   15     0.22473    
         24    6   11     0.95584    
[...]
      KODE = 5  NTRIAL =   3  T = 320.0000  P =  35136.5      V =  0.00000      Q = -9089.68    
      VOL-FLOW   =  0.1610E-01 , DELTA P    =  0.1500E+07 , PUMP EFF   =  0.6464    
      FLUID PWR  =  0.2415E+05 , BRAKE PWR  =  0.3735E+05 , ELEC PWR   =  0.3735E+05
      NPSH AVAIL =   1135.    

      GENERATING RESULTS FOR UOS BLOCK B12      MODEL: PUMP                       TIME =   4685.51
      KODE = 5  NTRIAL =   2  T = 417.3354  P =  33132.5      V =  0.00000      Q = 9.664778E-05
      VOL-FLOW   =  0.1418E-01 , DELTA P    =  0.2196E+07 , PUMP EFF   =  0.6326    
      FLUID PWR  =  0.3113E+05 , BRAKE PWR  =  0.4921E+05 , ELEC PWR   =  0.4921E+05
      NPSH AVAIL =   0.000    

      GENERATING RESULTS FOR UOS BLOCK B8       MODEL: PUMP                       TIME =   4685.51
      KODE = 5  NTRIAL =   4  T = 314.4287  P =  30397.5      V =  0.00000      Q =-5.036166E-07
      VOL-FLOW   =  0.2459E-01 , DELTA P    =  0.2503E+07 , PUMP EFF   =  0.6897    
      FLUID PWR  =  0.6155E+05 , BRAKE PWR  =  0.8924E+05 , ELEC PWR   =  0.8924E+05
      NPSH AVAIL =   0.000    

      GENERATING RESULTS FOR UOS BLOCK B14      MODEL: PUMP                       TIME =   4685.51
      KODE = 5  NTRIAL =   3  T = 337.8123  P =  10132.5      V =  0.00000      Q =-6.824780E-07
      VOL-FLOW   =  0.2240E-01 , DELTA P    =  0.1003E+07 , PUMP EFF   =  0.6805    
      FLUID PWR  =  0.2247E+05 , BRAKE PWR  =  0.3301E+05 , ELEC PWR   =  0.3301E+05
      NPSH AVAIL =   0.000    

      CHECKING PHASE EQUILIBRIUM RESULTS                                          TIME =   4685.51

      CHECKING PHASE EQUILIBRIUM RESULTS                                          TIME =   4685.51

 Report Writer entered                                                            Time =   4691.17

 Results generated                                                                Time =   4691.22

 Report Writer entered                                                            Time =   4691.90

 Results generated                                                                Time =   4691.95

RUN SAVED



 *** SUMMARY OF ERRORS ***

                  PHYSICAL
                  PROPERTY  SYSTEM  SIMULATION
 TERMINAL ERRORS      0        0         0
   SEVERE ERRORS      0        0         0
          ERRORS      0        0         0
        WARNINGS      0        0         1

 Report Writer entered                                                            Time =   4697.81

 Results generated                                                                Time =   4697.85

 Report Writer entered                                                            Time =   4698.76

 Results generated                                                                Time =   4698.80

RUN SAVED



 *** SUMMARY OF ERRORS ***

                  PHYSICAL
                  PROPERTY  SYSTEM  SIMULATION
 TERMINAL ERRORS      0        0         0
   SEVERE ERRORS      0        0         0
          ERRORS      0        0         0
        WARNINGS      0        0         1

 *** CALCULATION TRACE ***


<set objective = None>


*** INPUT SPECIFICATION MESSAGES ***

 CHANGES WERE MADE TO STREAM       S1       05/24/2024   17:13:08:99 
 STREAM S1
     SUBSTREAM MIXED TEMP=320. PRES=15. MOLE-FLOW=641.04
     MOLE-FRAC BENZENE 1.

 CHANGES WERE MADE TO BLOCK        B1       05/24/2024   17:13:08:99 
 BLOCK B1 PUMP
     PARAM PRES=30.

 CHANGES WERE MADE TO BLOCK        C1       05/24/2024   17:13:08:99 
 BLOCK C1 RADFRAC
     SUBOBJECTS INTERNALS = CS-1
     PARAM NSTAGE=20 ALGORITHM=STANDARD HYDRAULIC=NO MAXOL=25  &
         DAMPING=NONE
     PARAM2 STATIC-DP=YES
     COL-CONFIG CONDENSER=TOTAL CA-CONFIG=INT-1
     FEEDS S9 10 ON-STAGE
     PRODUCTS C1-B 20 L / C1-D 1 L
     P-SPEC 1 0.3
     COL-SPECS QN=8.13 <MW> DP-STAGE=9.86923267E-3 MOLE-RR=0.6
     SPEC 1 MOLE-FRAC 0.9989 COMPS=BENZENE STREAMS=C1-D  &
         SPEC-ACTIVE=YES SPEC-DESCRIP="Mole purity, 0.9989, PRODUCT"
     SPEC 2 MOLE-FRAC 0.0003 COMPS=BENZENE STREAMS=C1-B  &
         SPEC-DESCRIP="Mole purity, 0.0003, PRODUCT"
     VARY 1 MOLE-RR 0.01 10. VARY-ACTIVE=YES
     VARY 2 QN 2000. 10000000. VARY-ACTIVE=YES
     REPORT NOHYDRAULIC
     INTERNALS CS-1 STAGE1=2 STAGE2=19 P-UPDATE=NO  &
         TRAYTYPE=SIEVE NPASS=1 SYSFAC=1.000000000  &
         OVER-DESIGN=1.000000000 WEIR-HT=50.80000000 <mm>  &
         DC-CLEAR=38.10000000 <mm> DC-WTOP-SIDE=740.0910818 <mm>  &
         DC-WBOT-SIDE=740.0910818 <mm> HOLE-DIAM=12.70000000 <mm>  &
         HOLE-AREA=.1000000000 FLOOD-METH=GLITSCH6  &
         DECK-THICK=0.134 <IN> PCT-FLOOD-FA=80.00000000  &
         AER-PARAM-M=1.000000000 MAX-DC-LOAD=GLITSCH  &
         MAX-ACC-DP=.0246730816 MAX-PCT-DCB=100.0000000  &
         MAX-PCT-ENT=10.00000000 MIN-WEIR-LD=4.470981863  &
         MAX-WEIR-LD=117.3721131 MIN-PCT-DCA=.1000000000
     TRAY-SIZE 1 2 19 SIEVE

 CHANGES WERE MADE TO BLOCK        C2       05/24/2024   17:13:08:99 
 BLOCK C2 RADFRAC
     SUBOBJECTS INTERNALS = CS-1
     PARAM NSTAGE=24 ALGORITHM=STANDARD HYDRAULIC=NO MAXOL=25  &
         DAMPING=NONE
     PARAM2 STATIC-DP=YES
     COL-CONFIG CONDENSER=TOTAL CA-CONFIG=INT-1
     FEEDS S14 15 ON-STAGE
     PRODUCTS C2-B 24 L / C2-D 1 L
     P-SPEC 1 0.1
     COL-SPECS QN=5.1 <MW> DP-STAGE=0.01 <bar> MOLE-RR=0.635
     SPEC 1 MOLE-FRAC 0.999 COMPS=EB STREAMS=C2-D  &
         SPEC-ACTIVE=YES SPEC-DESCRIP="Mole purity, 0.999, PRODUCT"
     SPEC 2 MOLE-FRAC 0.999 COMPS=DEB STREAMS=C2-B  &
         SPEC-ACTIVE=YES SPEC-DESCRIP="Mole purity, 0.999, PRODUCT"
     VARY 1 MOLE-RR 0.01 10. VARY-ACTIVE=YES
     VARY 2 QN 5000. 1000000. VARY-ACTIVE=YES
     REPORT NOHYDRAULIC
     INTERNALS CS-1 STAGE1=2 STAGE2=23 P-UPDATE=NO  &
         TRAYTYPE=SIEVE NPASS=1 SYSFAC=1.000000000  &
         OVER-DESIGN=1.000000000 WEIR-HT=50.80000000 <mm>  &
         DC-CLEAR=38.10000000 <mm> DC-WTOP-SIDE=843.3626191 <mm>  &
         DC-WBOT-SIDE=843.3626191 <mm> HOLE-DIAM=12.70000000 <mm>  &
         HOLE-AREA=.1000000000 FLOOD-METH=GLITSCH6  &
         DECK-THICK=0.134 <IN> PCT-FLOOD-FA=80.00000000  &
         AER-PARAM-M=1.000000000 MAX-DC-LOAD=GLITSCH  &
         MAX-ACC-DP=.0246730816 MAX-PCT-DCB=100.0000000  &
         MAX-PCT-ENT=10.00000000 MIN-WEIR-LD=4.470981863  &
         MAX-WEIR-LD=117.3721131 MIN-PCT-DCA=.1000000000
     TRAY-SIZE 1 2 23 SIEVE

 PDF updated                                                                      TIME =     29.79
 THIS COPY OF ASPEN PLUS LICENSED TO INDIAN INSTITUTE OF TECH        
 
 CALCULATOR BLOCK: B16 WILL BE INTERPRETED 
 

Calculations begin                                                              time     30.59


      UOS BLOCK C2       MODEL: RADFRAC                                           TIME =     30.59

       Convergence iterations:
         OL   ML   IL     Err/Tol
          1    4   15     0.40283E-04

      RESULTS FOR MANIPULATED VARIABLES:
      VARIABLE     FINAL VALUE    LOWER BOUND    UPPER BOUND
         1         0.61973        0.10000E-01     10.000    
         2         0.98292E+07    0.50000E+07    0.10000E+10

      UOS BLOCK B12      MODEL: PUMP                                              TIME =     30.59
      VOL-FLOW   =  0.1418E-01 , DELTA P    =  0.2196E+07 , PUMP EFF   =  0.6326    
      FLUID PWR  =  0.3113E+05 , BRAKE PWR  =  0.4921E+05 , ELEC PWR   =  0.4921E+05

      UOS BLOCK B13      MODEL: VALVE                                             TIME =     30.59
      NO. TEMP ITER =    6     TEMP =  418.816    
      KODE = 1  NTRIAL =   2  T = 418.8165  P = 1.925175E+06  V =  0.00000      Q =  0.00000    
      OUTLET PRES =   0.1925E+07 PRES DROP =   0.3040E+06

      UOS BLOCK B7       MODEL: RCSTR                                             TIME =     30.59
      KODE = 2   NO. TEMP ITER =    1     TEMP =  432.000    
      KPHASE =    2 KODE =    2 T =  432.000     P = 1.925175E+06 Q = -60139.7    
      REACTOR DUTY =  -60139.7      VOLUME =   200.000      RES TIME =   2877.11    
      REACTOR T =   432.000      P =  1.925175E+06  V =   0.00000    

      UOS BLOCK V1       MODEL: VALVE                                             TIME =     30.61
      KODE = 1  NTRIAL =   5  T = 354.3881  P =  39397.5      V = 0.477851      Q =  0.00000    
      OUTLET PRES =   0.3940E+05 PRES DROP =   0.1886E+07

      UOS BLOCK C1       MODEL: RADFRAC                                           TIME =     30.61

       Convergence iterations:
         OL   ML   IL     Err/Tol
          1    4   14     0.42948E-04

      RESULTS FOR MANIPULATED VARIABLES:
      VARIABLE     FINAL VALUE    LOWER BOUND    UPPER BOUND
         1         0.80365        0.10000E-01     10.000    
         2         0.86191E+07    0.20000E+07    0.10000E+11

      UOS BLOCK B8       MODEL: PUMP                                              TIME =     30.61
      VOL-FLOW   =  0.2459E-01 , DELTA P    =  0.2503E+07 , PUMP EFF   =  0.6897    
      FLUID PWR  =  0.6155E+05 , BRAKE PWR  =  0.8924E+05 , ELEC PWR   =  0.8924E+05

      UOS BLOCK B11      MODEL: VALVE                                             TIME =     30.61
      NO. TEMP ITER =    6     TEMP =  316.074    
      KODE = 1  NTRIAL =   4  T = 316.0742  P = 2.026500E+06  V =  0.00000      Q =  0.00000    
      OUTLET PRES =   0.2026E+07 PRES DROP =   0.5066E+06

      CALCULATOR BLOCK B16                                                        TIME =     30.61

      ENTHALPY CALCULATION FOR INLET STREAM S1 OF BLOCK B1                        TIME =     30.61
      KODE = 2  NTRIAL =   1  T = 320.0000  P = 1.519875E+06  V =  0.00000      Q =  0.00000    

      UOS BLOCK B1       MODEL: PUMP                                              TIME =     30.61
      VOL-FLOW   =  0.1610E-01 , DELTA P    =  0.1520E+07 , PUMP EFF   =  0.6464    
      FLUID PWR  =  0.2447E+05 , BRAKE PWR  =  0.3785E+05 , ELEC PWR   =  0.3785E+05

      CONVERGENCE BLOCK $OLVER15  METHOD: WEGSTEIN                                TIME =     30.61
      ITER   0 For Tear Streams: S2        RYC       C1-B

      UOS BLOCK B9       MODEL: PUMP                                              TIME =     30.61
      VOL-FLOW   =  0.3788E-01 , DELTA P    =  0.9639E+06 , PUMP EFF   =  0.7294    
      FLUID PWR  =  0.3651E+05 , BRAKE PWR  =  0.5005E+05 , ELEC PWR   =  0.5005E+05

      UOS BLOCK B10      MODEL: VALVE                                             TIME =     30.61
      KODE = 1  NTRIAL =   5  T = 371.7782  P =  24132.5      V = 0.145935      Q =  0.00000    
      OUTLET PRES =   0.2413E+05 PRES DROP =   0.9891E+06

      UOS BLOCK C2       MODEL: RADFRAC                                           TIME =     30.61

       Convergence iterations:
         OL   ML   IL     Err/Tol
          1    4   15     0.14160E-02

      RESULTS FOR MANIPULATED VARIABLES:
      VARIABLE     FINAL VALUE    LOWER BOUND    UPPER BOUND
         1         0.61973        0.10000E-01     10.000    
         2         0.98292E+07    0.50000E+07    0.10000E+10

      UOS BLOCK B12      MODEL: PUMP                                              TIME =     30.61
      VOL-FLOW   =  0.1418E-01 , DELTA P    =  0.2196E+07 , PUMP EFF   =  0.6326    
      FLUID PWR  =  0.3113E+05 , BRAKE PWR  =  0.4921E+05 , ELEC PWR   =  0.4921E+05

      UOS BLOCK B13      MODEL: VALVE                                             TIME =     30.61
      NO. TEMP ITER =    6     TEMP =  418.816    
      KODE = 1  NTRIAL =   2  T = 418.8165  P = 1.925175E+06  V =  0.00000      Q =  0.00000    
      OUTLET PRES =   0.1925E+07 PRES DROP =   0.3040E+06

      UOS BLOCK B2       MODEL: VALVE                                             TIME =     30.61
      NO. TEMP ITER =    6     TEMP =  321.380    
      KODE = 1  NTRIAL =   2  T = 321.3803  P = 2.026500E+06  V =  0.00000      Q =  0.00000    
      OUTLET PRES =   0.2026E+07 PRES DROP =   0.1013E+07

      UOS BLOCK B15      MODEL: MIXER                                             TIME =     30.61
      NO. TEMP ITER =    6     TEMP =  318.172    
      KODE = 1  NTRIAL =   3  T = 318.1716  P = 2.026500E+06  V =  0.00000      Q =  0.00000    

      UOS BLOCK B3       MODEL: RCSTR                                             TIME =     30.61
      KODE = 2   NO. TEMP ITER =    1     TEMP =  434.000    
      KPHASE =    2 KODE =    2 T =  434.000     P = 2.026500E+06 Q =-1.037900E+07
      REACTOR DUTY = -0.103790E+08  VOLUME =   200.000      RES TIME =   3630.80    
      REACTOR T =   434.000      P =  2.026500E+06  V =   0.00000    

      UOS BLOCK B6       MODEL: VALVE                                             TIME =     30.62
      NO. TEMP ITER =    5     TEMP =  434.019    
      KODE = 1  NTRIAL =   5  T = 434.0187  P = 1.925175E+06  V =  0.00000      Q =  0.00000    
      OUTLET PRES =   0.1925E+07 PRES DROP =   0.1013E+06

      UOS BLOCK B7       MODEL: RCSTR                                             TIME =     30.62
      KODE = 2   NO. TEMP ITER =    1     TEMP =  432.000    
      KPHASE =    2 KODE =    2 T =  432.000     P = 1.925175E+06 Q = -60139.8    
      REACTOR DUTY =  -60139.8      VOLUME =   200.000      RES TIME =   2877.11    
      REACTOR T =   432.000      P =  1.925175E+06  V =   0.00000    

      UOS BLOCK V1       MODEL: VALVE                                             TIME =     30.62
      KODE = 1  NTRIAL =   5  T = 354.3881  P =  39397.5      V = 0.477851      Q =  0.00000    
      OUTLET PRES =   0.3940E+05 PRES DROP =   0.1886E+07

      UOS BLOCK C1       MODEL: RADFRAC                                           TIME =     30.62

       Convergence iterations:
         OL   ML   IL     Err/Tol
          1    4   14     0.33979E-03

      RESULTS FOR MANIPULATED VARIABLES:
      VARIABLE     FINAL VALUE    LOWER BOUND    UPPER BOUND
         1         0.80365        0.10000E-01     10.000    
         2         0.86191E+07    0.20000E+07    0.10000E+11

      UOS BLOCK B8       MODEL: PUMP                                              TIME =     30.62
      VOL-FLOW   =  0.2459E-01 , DELTA P    =  0.2503E+07 , PUMP EFF   =  0.6897    
      FLUID PWR  =  0.6155E+05 , BRAKE PWR  =  0.8924E+05 , ELEC PWR   =  0.8924E+05

      UOS BLOCK B11      MODEL: VALVE                                             TIME =     30.62
      NO. TEMP ITER =    6     TEMP =  316.074    
      KODE = 1  NTRIAL =   4  T = 316.0742  P = 2.026500E+06  V =  0.00000      Q =  0.00000    
      OUTLET PRES =   0.2026E+07 PRES DROP =   0.5066E+06

      CALCULATOR BLOCK B16                                                        TIME =     30.62

      UOS BLOCK B1       MODEL: PUMP                                              TIME =     30.62
      VOL-FLOW   =  0.1610E-01 , DELTA P    =  0.1520E+07 , PUMP EFF   =  0.6464    
      FLUID PWR  =  0.2447E+05 , BRAKE PWR  =  0.3785E+05 , ELEC PWR   =  0.3785E+05

      CONVERGENCE BLOCK $OLVER15  METHOD: WEGSTEIN                                TIME =     30.62
      ITER   1 For Tear Streams: S2        RYC       C1-B

  LOOP $OLVER15 ITER    1:     *** CONVERGED *** , MAX ERR/TOL    -0.29690E-01    TIME =     30.62

      UOS BLOCK B14      MODEL: PUMP                                              TIME =     30.65
      VOL-FLOW   =  0.2240E-01 , DELTA P    =  0.1003E+07 , PUMP EFF   =  0.6805    
      FLUID PWR  =  0.2247E+05 , BRAKE PWR  =  0.3301E+05 , ELEC PWR   =  0.3301E+05

      UOS BLOCK B17      MODEL: VALVE                                             TIME =     30.65
      NO. TEMP ITER =    5     TEMP =  338.693    
      KODE = 1  NTRIAL =   2  T = 338.6926  P =  101325.      V =  0.00000      Q =  0.00000    
      OUTLET PRES =   0.1013E+06 PRES DROP =   0.9119E+06

      GENERATING RESULTS FOR UOS BLOCK B1       MODEL: PUMP                       TIME =     30.65
      KODE = 5  NTRIAL =   3  T = 320.0000  P =  35136.5      V =  0.00000      Q = -14003.8    
      VOL-FLOW   =  0.1610E-01 , DELTA P    =  0.1520E+07 , PUMP EFF   =  0.6464    
      FLUID PWR  =  0.2447E+05 , BRAKE PWR  =  0.3785E+05 , ELEC PWR   =  0.3785E+05
      NPSH AVAIL =   1747.    

      GENERATING RESULTS FOR UOS BLOCK B9       MODEL: PUMP                       TIME =     30.65
      KODE = 5  NTRIAL =   3  T = 394.2374  P =  49397.5      V =  0.00000      Q =-0.103689    
      VOL-FLOW   =  0.3788E-01 , DELTA P    =  0.9639E+06 , PUMP EFF   =  0.7294    
      FLUID PWR  =  0.3651E+05 , BRAKE PWR  =  0.5005E+05 , ELEC PWR   =  0.5005E+05
      NPSH AVAIL =   0.000    

      GENERATING RESULTS FOR UOS BLOCK B12      MODEL: PUMP                       TIME =     30.65
      KODE = 5  NTRIAL =   2  T = 417.3354  P =  33132.5      V =  0.00000      Q = 9.665371E-05
      VOL-FLOW   =  0.1418E-01 , DELTA P    =  0.2196E+07 , PUMP EFF   =  0.6326    
      FLUID PWR  =  0.3113E+05 , BRAKE PWR  =  0.4921E+05 , ELEC PWR   =  0.4921E+05
      NPSH AVAIL =   0.000    

      GENERATING RESULTS FOR UOS BLOCK B8       MODEL: PUMP                       TIME =     30.65
      KODE = 5  NTRIAL =   4  T = 314.4287  P =  30397.5      V =  0.00000      Q =-1.374412E-06
      VOL-FLOW   =  0.2459E-01 , DELTA P    =  0.2503E+07 , PUMP EFF   =  0.6897    
      FLUID PWR  =  0.6155E+05 , BRAKE PWR  =  0.8924E+05 , ELEC PWR   =  0.8924E+05
      NPSH AVAIL =   0.000    

      GENERATING RESULTS FOR UOS BLOCK B14      MODEL: PUMP                       TIME =     30.65
      KODE = 5  NTRIAL =   3  T = 337.8123  P =  10132.5      V =  0.00000      Q =-6.798681E-07
      VOL-FLOW   =  0.2240E-01 , DELTA P    =  0.1003E+07 , PUMP EFF   =  0.6805    
      FLUID PWR  =  0.2247E+05 , BRAKE PWR  =  0.3301E+05 , ELEC PWR   =  0.3301E+05
      NPSH AVAIL =   0.000    

      CHECKING PHASE EQUILIBRIUM RESULTS                                          TIME =     30.65

      CHECKING PHASE EQUILIBRIUM RESULTS                                          TIME =     30.65

 Report Writer entered                                                            Time =     35.31

 Results generated                                                                Time =     35.36

 Report Writer entered                                                            Time =     36.14

 Results generated                                                                Time =     36.18

RUN SAVED



 NO ERRORS OR WARNINGS GENERATED

 Report Writer entered                                                            Time =     55.32

 Results generated                                                                Time =     55.37

 Report Writer entered                                                            Time =     63.93

 Results generated                                                                Time =     63.98

RUN SAVED



 NO ERRORS OR WARNINGS GENERATED

 Report Writer entered                                                            Time =   2274.21

 Results generated                                                                Time =   2274.26

 Report Writer entered                                                            Time =   2281.85

 Results generated                                                                Time =   2281.91

RUN SAVED



 NO ERRORS OR WARNINGS GENERATED

 Report Writer entered                                                            Time =  12698.76

 Results generated                                                                Time =  12698.83

 Report Writer entered                                                            Time =  12699.57

 Results generated                                                                Time =  12699.63

RUN SAVED



 NO ERRORS OR WARNINGS GENERATED

 *** CALCULATION TRACE ***


<set objective = None>

 Report Writer entered                                                            Time =    319.44

 Results generated                                                                Time =    319.51

RUN SAVED



 NO ERRORS OR WARNINGS GENERATED
